
This summary file was generated by HydroDyn  on 30-Oct-2022 at 18:26:27.

WAMIT Model - Body    1
------------------
  Displaced volume (m^3)                 :     2.020635E+04
  X-offset of the center of buoyancy (m) :     0.000000E+00
  Y-offset of the center of buoyancy (m) :     0.000000E+00


  Buoyancy loads from members modelled with WAMIT, summed about ( 0.0, 0.0, 0.0 )
                                BuoyFxi               BuoyFyi               BuoyFzi               BuoyMxi               BuoyMyi               BuoyMzi 
                                  (N)                   (N)                   (N)                  (N-m)                 (N-m)                 (N-m)  
  External:                 0.000000E+00          0.000000E+00          2.031799E+08          0.000000E+00          0.000000E+00          0.000000E+00



 Wave Kinematics


       m              k          Omega[m]       Direction    REAL(DFT{WaveElev})  IMAG(DFT{WaveElev})
      (-)           (1/m)        (rad/s)          (deg)             (m)                  (m)         
      -1699     1.60783E+01    -1.25590E+01     0.00000E+00     0.00000E+00          0.00000E+00
      -1698     1.60594E+01    -1.25516E+01     0.00000E+00     0.00000E+00          0.00000E+00
      -1697     1.60404E+01    -1.25442E+01     0.00000E+00     0.00000E+00          0.00000E+00
      -1696     1.60216E+01    -1.25368E+01     0.00000E+00     0.00000E+00          0.00000E+00
      -1695     1.60027E+01    -1.25294E+01     0.00000E+00     0.00000E+00          0.00000E+00
      -1694     1.59838E+01    -1.25220E+01     0.00000E+00     0.00000E+00          0.00000E+00
      -1693     1.59649E+01    -1.25146E+01     0.00000E+00     0.00000E+00          0.00000E+00
      -1692     1.59461E+01    -1.25072E+01     0.00000E+00     0.00000E+00          0.00000E+00
      -1691     1.59272E+01    -1.24998E+01     0.00000E+00     0.00000E+00          0.00000E+00
      -1690     1.59084E+01    -1.24925E+01     0.00000E+00     0.00000E+00          0.00000E+00
      -1689     1.58896E+01    -1.24851E+01     0.00000E+00     0.00000E+00          0.00000E+00
      -1688     1.58708E+01    -1.24777E+01     0.00000E+00     0.00000E+00          0.00000E+00
      -1687     1.58520E+01    -1.24703E+01     0.00000E+00     0.00000E+00          0.00000E+00
      -1686     1.58332E+01    -1.24629E+01     0.00000E+00     0.00000E+00          0.00000E+00
      -1685     1.58144E+01    -1.24555E+01     0.00000E+00     0.00000E+00          0.00000E+00
      -1684     1.57956E+01    -1.24481E+01     0.00000E+00     0.00000E+00          0.00000E+00
      -1683     1.57769E+01    -1.24407E+01     0.00000E+00     0.00000E+00          0.00000E+00
      -1682     1.57581E+01    -1.24333E+01     0.00000E+00     0.00000E+00          0.00000E+00
      -1681     1.57394E+01    -1.24259E+01     0.00000E+00     0.00000E+00          0.00000E+00
      -1680     1.57207E+01    -1.24185E+01     0.00000E+00     0.00000E+00          0.00000E+00
      -1679     1.57020E+01    -1.24111E+01     0.00000E+00     0.00000E+00          0.00000E+00
      -1678     1.56833E+01    -1.24037E+01     0.00000E+00     0.00000E+00          0.00000E+00
      -1677     1.56646E+01    -1.23964E+01     0.00000E+00     0.00000E+00          0.00000E+00
      -1676     1.56459E+01    -1.23890E+01     0.00000E+00     0.00000E+00          0.00000E+00
      -1675     1.56272E+01    -1.23816E+01     0.00000E+00     0.00000E+00          0.00000E+00
      -1674     1.56086E+01    -1.23742E+01     0.00000E+00     0.00000E+00          0.00000E+00
      -1673     1.55900E+01    -1.23668E+01     0.00000E+00     0.00000E+00          0.00000E+00
      -1672     1.55713E+01    -1.23594E+01     0.00000E+00     0.00000E+00          0.00000E+00
      -1671     1.55527E+01    -1.23520E+01     0.00000E+00     0.00000E+00          0.00000E+00
      -1670     1.55341E+01    -1.23446E+01     0.00000E+00     0.00000E+00          0.00000E+00
      -1669     1.55155E+01    -1.23372E+01     0.00000E+00     0.00000E+00          0.00000E+00
      -1668     1.54969E+01    -1.23298E+01     0.00000E+00     0.00000E+00          0.00000E+00
      -1667     1.54783E+01    -1.23224E+01     0.00000E+00     0.00000E+00          0.00000E+00
      -1666     1.54598E+01    -1.23150E+01     0.00000E+00     0.00000E+00          0.00000E+00
      -1665     1.54412E+01    -1.23077E+01     0.00000E+00     0.00000E+00          0.00000E+00
      -1664     1.54227E+01    -1.23003E+01     0.00000E+00     0.00000E+00          0.00000E+00
      -1663     1.54041E+01    -1.22929E+01     0.00000E+00     0.00000E+00          0.00000E+00
      -1662     1.53856E+01    -1.22855E+01     0.00000E+00     0.00000E+00          0.00000E+00
      -1661     1.53671E+01    -1.22781E+01     0.00000E+00     0.00000E+00          0.00000E+00
      -1660     1.53486E+01    -1.22707E+01     0.00000E+00     0.00000E+00          0.00000E+00
      -1659     1.53301E+01    -1.22633E+01     0.00000E+00     0.00000E+00          0.00000E+00
      -1658     1.53116E+01    -1.22559E+01     0.00000E+00     0.00000E+00          0.00000E+00
      -1657     1.52932E+01    -1.22485E+01     0.00000E+00     0.00000E+00          0.00000E+00
      -1656     1.52747E+01    -1.22411E+01     0.00000E+00     0.00000E+00          0.00000E+00
      -1655     1.52563E+01    -1.22337E+01     0.00000E+00     0.00000E+00          0.00000E+00
      -1654     1.52379E+01    -1.22263E+01     0.00000E+00     0.00000E+00          0.00000E+00
      -1653     1.52194E+01    -1.22189E+01     0.00000E+00     0.00000E+00          0.00000E+00
      -1652     1.52010E+01    -1.22116E+01     0.00000E+00     0.00000E+00          0.00000E+00
      -1651     1.51826E+01    -1.22042E+01     0.00000E+00     0.00000E+00          0.00000E+00
      -1650     1.51642E+01    -1.21968E+01     0.00000E+00     0.00000E+00          0.00000E+00
      -1649     1.51459E+01    -1.21894E+01     0.00000E+00     0.00000E+00          0.00000E+00
      -1648     1.51275E+01    -1.21820E+01     0.00000E+00     0.00000E+00          0.00000E+00
      -1647     1.51092E+01    -1.21746E+01     0.00000E+00     0.00000E+00          0.00000E+00
      -1646     1.50908E+01    -1.21672E+01     0.00000E+00     0.00000E+00          0.00000E+00
      -1645     1.50725E+01    -1.21598E+01     0.00000E+00     0.00000E+00          0.00000E+00
      -1644     1.50542E+01    -1.21524E+01     0.00000E+00     0.00000E+00          0.00000E+00
      -1643     1.50358E+01    -1.21450E+01     0.00000E+00     0.00000E+00          0.00000E+00
      -1642     1.50176E+01    -1.21376E+01     0.00000E+00     0.00000E+00          0.00000E+00
      -1641     1.49993E+01    -1.21302E+01     0.00000E+00     0.00000E+00          0.00000E+00
      -1640     1.49810E+01    -1.21229E+01     0.00000E+00     0.00000E+00          0.00000E+00
      -1639     1.49627E+01    -1.21155E+01     0.00000E+00     0.00000E+00          0.00000E+00
      -1638     1.49445E+01    -1.21081E+01     0.00000E+00     0.00000E+00          0.00000E+00
      -1637     1.49262E+01    -1.21007E+01     0.00000E+00     0.00000E+00          0.00000E+00
      -1636     1.49080E+01    -1.20933E+01     0.00000E+00     0.00000E+00          0.00000E+00
      -1635     1.48898E+01    -1.20859E+01     0.00000E+00     0.00000E+00          0.00000E+00
      -1634     1.48716E+01    -1.20785E+01     0.00000E+00     0.00000E+00          0.00000E+00
      -1633     1.48534E+01    -1.20711E+01     0.00000E+00     0.00000E+00          0.00000E+00
      -1632     1.48352E+01    -1.20637E+01     0.00000E+00     0.00000E+00          0.00000E+00
      -1631     1.48170E+01    -1.20563E+01     0.00000E+00     0.00000E+00          0.00000E+00
      -1630     1.47989E+01    -1.20489E+01     0.00000E+00     0.00000E+00          0.00000E+00
      -1629     1.47807E+01    -1.20415E+01     0.00000E+00     0.00000E+00          0.00000E+00
      -1628     1.47626E+01    -1.20341E+01     0.00000E+00     0.00000E+00          0.00000E+00
      -1627     1.47444E+01    -1.20268E+01     0.00000E+00     0.00000E+00          0.00000E+00
      -1626     1.47263E+01    -1.20194E+01     0.00000E+00     0.00000E+00          0.00000E+00
      -1625     1.47082E+01    -1.20120E+01     0.00000E+00     0.00000E+00          0.00000E+00
      -1624     1.46901E+01    -1.20046E+01     0.00000E+00     0.00000E+00          0.00000E+00
      -1623     1.46720E+01    -1.19972E+01     0.00000E+00     0.00000E+00          0.00000E+00
      -1622     1.46539E+01    -1.19898E+01     0.00000E+00     0.00000E+00          0.00000E+00
      -1621     1.46359E+01    -1.19824E+01     0.00000E+00     0.00000E+00          0.00000E+00
      -1620     1.46178E+01    -1.19750E+01     0.00000E+00     0.00000E+00          0.00000E+00
      -1619     1.45998E+01    -1.19676E+01     0.00000E+00     0.00000E+00          0.00000E+00
      -1618     1.45818E+01    -1.19602E+01     0.00000E+00     0.00000E+00          0.00000E+00
      -1617     1.45637E+01    -1.19528E+01     0.00000E+00     0.00000E+00          0.00000E+00
      -1616     1.45457E+01    -1.19454E+01     0.00000E+00     0.00000E+00          0.00000E+00
      -1615     1.45277E+01    -1.19381E+01     0.00000E+00     0.00000E+00          0.00000E+00
      -1614     1.45097E+01    -1.19307E+01     0.00000E+00     0.00000E+00          0.00000E+00
      -1613     1.44918E+01    -1.19233E+01     0.00000E+00     0.00000E+00          0.00000E+00
      -1612     1.44738E+01    -1.19159E+01     0.00000E+00     0.00000E+00          0.00000E+00
      -1611     1.44559E+01    -1.19085E+01     0.00000E+00     0.00000E+00          0.00000E+00
      -1610     1.44379E+01    -1.19011E+01     0.00000E+00     0.00000E+00          0.00000E+00
      -1609     1.44200E+01    -1.18937E+01     0.00000E+00     0.00000E+00          0.00000E+00
      -1608     1.44021E+01    -1.18863E+01     0.00000E+00     0.00000E+00          0.00000E+00
      -1607     1.43842E+01    -1.18789E+01     0.00000E+00     0.00000E+00          0.00000E+00
      -1606     1.43663E+01    -1.18715E+01     0.00000E+00     0.00000E+00          0.00000E+00
      -1605     1.43484E+01    -1.18641E+01     0.00000E+00     0.00000E+00          0.00000E+00
      -1604     1.43305E+01    -1.18567E+01     0.00000E+00     0.00000E+00          0.00000E+00
      -1603     1.43126E+01    -1.18493E+01     0.00000E+00     0.00000E+00          0.00000E+00
      -1602     1.42948E+01    -1.18420E+01     0.00000E+00     0.00000E+00          0.00000E+00
      -1601     1.42770E+01    -1.18346E+01     0.00000E+00     0.00000E+00          0.00000E+00
      -1600     1.42591E+01    -1.18272E+01     0.00000E+00     0.00000E+00          0.00000E+00
      -1599     1.42413E+01    -1.18198E+01     0.00000E+00     0.00000E+00          0.00000E+00
      -1598     1.42235E+01    -1.18124E+01     0.00000E+00     0.00000E+00          0.00000E+00
      -1597     1.42057E+01    -1.18050E+01     0.00000E+00     0.00000E+00          0.00000E+00
      -1596     1.41879E+01    -1.17976E+01     0.00000E+00     0.00000E+00          0.00000E+00
      -1595     1.41701E+01    -1.17902E+01     0.00000E+00     0.00000E+00          0.00000E+00
      -1594     1.41524E+01    -1.17828E+01     0.00000E+00     0.00000E+00          0.00000E+00
      -1593     1.41346E+01    -1.17754E+01     0.00000E+00     0.00000E+00          0.00000E+00
      -1592     1.41169E+01    -1.17680E+01     0.00000E+00     0.00000E+00          0.00000E+00
      -1591     1.40992E+01    -1.17606E+01     0.00000E+00     0.00000E+00          0.00000E+00
      -1590     1.40814E+01    -1.17533E+01     0.00000E+00     0.00000E+00          0.00000E+00
      -1589     1.40637E+01    -1.17459E+01     0.00000E+00     0.00000E+00          0.00000E+00
      -1588     1.40460E+01    -1.17385E+01     0.00000E+00     0.00000E+00          0.00000E+00
      -1587     1.40284E+01    -1.17311E+01     0.00000E+00     0.00000E+00          0.00000E+00
      -1586     1.40107E+01    -1.17237E+01     0.00000E+00     0.00000E+00          0.00000E+00
      -1585     1.39930E+01    -1.17163E+01     0.00000E+00     0.00000E+00          0.00000E+00
      -1584     1.39754E+01    -1.17089E+01     0.00000E+00     0.00000E+00          0.00000E+00
      -1583     1.39577E+01    -1.17015E+01     0.00000E+00     0.00000E+00          0.00000E+00
      -1582     1.39401E+01    -1.16941E+01     0.00000E+00     0.00000E+00          0.00000E+00
      -1581     1.39225E+01    -1.16867E+01     0.00000E+00     0.00000E+00          0.00000E+00
      -1580     1.39049E+01    -1.16793E+01     0.00000E+00     0.00000E+00          0.00000E+00
      -1579     1.38873E+01    -1.16719E+01     0.00000E+00     0.00000E+00          0.00000E+00
      -1578     1.38697E+01    -1.16645E+01     0.00000E+00     0.00000E+00          0.00000E+00
      -1577     1.38521E+01    -1.16572E+01     0.00000E+00     0.00000E+00          0.00000E+00
      -1576     1.38346E+01    -1.16498E+01     0.00000E+00     0.00000E+00          0.00000E+00
      -1575     1.38170E+01    -1.16424E+01     0.00000E+00     0.00000E+00          0.00000E+00
      -1574     1.37995E+01    -1.16350E+01     0.00000E+00     0.00000E+00          0.00000E+00
      -1573     1.37819E+01    -1.16276E+01     0.00000E+00     0.00000E+00          0.00000E+00
      -1572     1.37644E+01    -1.16202E+01     0.00000E+00     0.00000E+00          0.00000E+00
      -1571     1.37469E+01    -1.16128E+01     0.00000E+00     0.00000E+00          0.00000E+00
      -1570     1.37294E+01    -1.16054E+01     0.00000E+00     0.00000E+00          0.00000E+00
      -1569     1.37119E+01    -1.15980E+01     0.00000E+00     0.00000E+00          0.00000E+00
      -1568     1.36945E+01    -1.15906E+01     0.00000E+00     0.00000E+00          0.00000E+00
      -1567     1.36770E+01    -1.15832E+01     0.00000E+00     0.00000E+00          0.00000E+00
      -1566     1.36595E+01    -1.15758E+01     0.00000E+00     0.00000E+00          0.00000E+00
      -1565     1.36421E+01    -1.15685E+01     0.00000E+00     0.00000E+00          0.00000E+00
      -1564     1.36247E+01    -1.15611E+01     0.00000E+00     0.00000E+00          0.00000E+00
      -1563     1.36073E+01    -1.15537E+01     0.00000E+00     0.00000E+00          0.00000E+00
      -1562     1.35899E+01    -1.15463E+01     0.00000E+00     0.00000E+00          0.00000E+00
      -1561     1.35725E+01    -1.15389E+01     0.00000E+00     0.00000E+00          0.00000E+00
      -1560     1.35551E+01    -1.15315E+01     0.00000E+00     0.00000E+00          0.00000E+00
      -1559     1.35377E+01    -1.15241E+01     0.00000E+00     0.00000E+00          0.00000E+00
      -1558     1.35203E+01    -1.15167E+01     0.00000E+00     0.00000E+00          0.00000E+00
      -1557     1.35030E+01    -1.15093E+01     0.00000E+00     0.00000E+00          0.00000E+00
      -1556     1.34857E+01    -1.15019E+01     0.00000E+00     0.00000E+00          0.00000E+00
      -1555     1.34683E+01    -1.14945E+01     0.00000E+00     0.00000E+00          0.00000E+00
      -1554     1.34510E+01    -1.14871E+01     0.00000E+00     0.00000E+00          0.00000E+00
      -1553     1.34337E+01    -1.14797E+01     0.00000E+00     0.00000E+00          0.00000E+00
      -1552     1.34164E+01    -1.14724E+01     0.00000E+00     0.00000E+00          0.00000E+00
      -1551     1.33991E+01    -1.14650E+01     0.00000E+00     0.00000E+00          0.00000E+00
      -1550     1.33819E+01    -1.14576E+01     0.00000E+00     0.00000E+00          0.00000E+00
      -1549     1.33646E+01    -1.14502E+01     0.00000E+00     0.00000E+00          0.00000E+00
      -1548     1.33473E+01    -1.14428E+01     0.00000E+00     0.00000E+00          0.00000E+00
      -1547     1.33301E+01    -1.14354E+01     0.00000E+00     0.00000E+00          0.00000E+00
      -1546     1.33129E+01    -1.14280E+01     0.00000E+00     0.00000E+00          0.00000E+00
      -1545     1.32957E+01    -1.14206E+01     0.00000E+00     0.00000E+00          0.00000E+00
      -1544     1.32785E+01    -1.14132E+01     0.00000E+00     0.00000E+00          0.00000E+00
      -1543     1.32613E+01    -1.14058E+01     0.00000E+00     0.00000E+00          0.00000E+00
      -1542     1.32441E+01    -1.13984E+01     0.00000E+00     0.00000E+00          0.00000E+00
      -1541     1.32269E+01    -1.13910E+01     0.00000E+00     0.00000E+00          0.00000E+00
      -1540     1.32097E+01    -1.13837E+01     0.00000E+00     0.00000E+00          0.00000E+00
      -1539     1.31926E+01    -1.13763E+01     0.00000E+00     0.00000E+00          0.00000E+00
      -1538     1.31755E+01    -1.13689E+01     0.00000E+00     0.00000E+00          0.00000E+00
      -1537     1.31583E+01    -1.13615E+01     0.00000E+00     0.00000E+00          0.00000E+00
      -1536     1.31412E+01    -1.13541E+01     0.00000E+00     0.00000E+00          0.00000E+00
      -1535     1.31241E+01    -1.13467E+01     0.00000E+00     0.00000E+00          0.00000E+00
      -1534     1.31070E+01    -1.13393E+01     0.00000E+00     0.00000E+00          0.00000E+00
      -1533     1.30899E+01    -1.13319E+01     0.00000E+00     0.00000E+00          0.00000E+00
      -1532     1.30729E+01    -1.13245E+01     0.00000E+00     0.00000E+00          0.00000E+00
      -1531     1.30558E+01    -1.13171E+01     0.00000E+00     0.00000E+00          0.00000E+00
      -1530     1.30387E+01    -1.13097E+01     0.00000E+00     0.00000E+00          0.00000E+00
      -1529     1.30217E+01    -1.13023E+01     0.00000E+00     0.00000E+00          0.00000E+00
      -1528     1.30047E+01    -1.12949E+01     0.00000E+00     0.00000E+00          0.00000E+00
      -1527     1.29877E+01    -1.12876E+01     0.00000E+00     0.00000E+00          0.00000E+00
      -1526     1.29707E+01    -1.12802E+01     0.00000E+00     0.00000E+00          0.00000E+00
      -1525     1.29537E+01    -1.12728E+01     0.00000E+00     0.00000E+00          0.00000E+00
      -1524     1.29367E+01    -1.12654E+01     0.00000E+00     0.00000E+00          0.00000E+00
      -1523     1.29197E+01    -1.12580E+01     0.00000E+00     0.00000E+00          0.00000E+00
      -1522     1.29027E+01    -1.12506E+01     0.00000E+00     0.00000E+00          0.00000E+00
      -1521     1.28858E+01    -1.12432E+01     0.00000E+00     0.00000E+00          0.00000E+00
      -1520     1.28689E+01    -1.12358E+01     0.00000E+00     0.00000E+00          0.00000E+00
      -1519     1.28519E+01    -1.12284E+01     0.00000E+00     0.00000E+00          0.00000E+00
      -1518     1.28350E+01    -1.12210E+01     0.00000E+00     0.00000E+00          0.00000E+00
      -1517     1.28181E+01    -1.12136E+01     0.00000E+00     0.00000E+00          0.00000E+00
      -1516     1.28012E+01    -1.12062E+01     0.00000E+00     0.00000E+00          0.00000E+00
      -1515     1.27843E+01    -1.11989E+01     0.00000E+00     0.00000E+00          0.00000E+00
      -1514     1.27675E+01    -1.11915E+01     0.00000E+00     0.00000E+00          0.00000E+00
      -1513     1.27506E+01    -1.11841E+01     0.00000E+00     0.00000E+00          0.00000E+00
      -1512     1.27338E+01    -1.11767E+01     0.00000E+00     0.00000E+00          0.00000E+00
      -1511     1.27169E+01    -1.11693E+01     0.00000E+00     0.00000E+00          0.00000E+00
      -1510     1.27001E+01    -1.11619E+01     0.00000E+00     0.00000E+00          0.00000E+00
      -1509     1.26833E+01    -1.11545E+01     0.00000E+00     0.00000E+00          0.00000E+00
      -1508     1.26665E+01    -1.11471E+01     0.00000E+00     0.00000E+00          0.00000E+00
      -1507     1.26497E+01    -1.11397E+01     0.00000E+00     0.00000E+00          0.00000E+00
      -1506     1.26329E+01    -1.11323E+01     0.00000E+00     0.00000E+00          0.00000E+00
      -1505     1.26161E+01    -1.11249E+01     0.00000E+00     0.00000E+00          0.00000E+00
      -1504     1.25994E+01    -1.11175E+01     0.00000E+00     0.00000E+00          0.00000E+00
      -1503     1.25826E+01    -1.11102E+01     0.00000E+00     0.00000E+00          0.00000E+00
      -1502     1.25659E+01    -1.11028E+01     0.00000E+00     0.00000E+00          0.00000E+00
      -1501     1.25491E+01    -1.10954E+01     0.00000E+00     0.00000E+00          0.00000E+00
      -1500     1.25324E+01    -1.10880E+01     0.00000E+00     0.00000E+00          0.00000E+00
      -1499     1.25157E+01    -1.10806E+01     0.00000E+00     0.00000E+00          0.00000E+00
      -1498     1.24990E+01    -1.10732E+01     0.00000E+00     0.00000E+00          0.00000E+00
      -1497     1.24824E+01    -1.10658E+01     0.00000E+00     0.00000E+00          0.00000E+00
      -1496     1.24657E+01    -1.10584E+01     0.00000E+00     0.00000E+00          0.00000E+00
      -1495     1.24490E+01    -1.10510E+01     0.00000E+00     0.00000E+00          0.00000E+00
      -1494     1.24324E+01    -1.10436E+01     0.00000E+00     0.00000E+00          0.00000E+00
      -1493     1.24157E+01    -1.10362E+01     0.00000E+00     0.00000E+00          0.00000E+00
      -1492     1.23991E+01    -1.10288E+01     0.00000E+00     0.00000E+00          0.00000E+00
      -1491     1.23825E+01    -1.10214E+01     0.00000E+00     0.00000E+00          0.00000E+00
      -1490     1.23659E+01    -1.10141E+01     0.00000E+00     0.00000E+00          0.00000E+00
      -1489     1.23493E+01    -1.10067E+01     0.00000E+00     0.00000E+00          0.00000E+00
      -1488     1.23327E+01    -1.09993E+01     0.00000E+00     0.00000E+00          0.00000E+00
      -1487     1.23161E+01    -1.09919E+01     0.00000E+00     0.00000E+00          0.00000E+00
      -1486     1.22996E+01    -1.09845E+01     0.00000E+00     0.00000E+00          0.00000E+00
      -1485     1.22830E+01    -1.09771E+01     0.00000E+00     0.00000E+00          0.00000E+00
      -1484     1.22665E+01    -1.09697E+01     0.00000E+00     0.00000E+00          0.00000E+00
      -1483     1.22500E+01    -1.09623E+01     0.00000E+00     0.00000E+00          0.00000E+00
      -1482     1.22335E+01    -1.09549E+01     0.00000E+00     0.00000E+00          0.00000E+00
      -1481     1.22170E+01    -1.09475E+01     0.00000E+00     0.00000E+00          0.00000E+00
      -1480     1.22005E+01    -1.09401E+01     0.00000E+00     0.00000E+00          0.00000E+00
      -1479     1.21840E+01    -1.09327E+01     0.00000E+00     0.00000E+00          0.00000E+00
      -1478     1.21675E+01    -1.09254E+01     0.00000E+00     0.00000E+00          0.00000E+00
      -1477     1.21511E+01    -1.09180E+01     0.00000E+00     0.00000E+00          0.00000E+00
      -1476     1.21346E+01    -1.09106E+01     0.00000E+00     0.00000E+00          0.00000E+00
      -1475     1.21182E+01    -1.09032E+01     0.00000E+00     0.00000E+00          0.00000E+00
      -1474     1.21017E+01    -1.08958E+01     0.00000E+00     0.00000E+00          0.00000E+00
      -1473     1.20853E+01    -1.08884E+01     0.00000E+00     0.00000E+00          0.00000E+00
      -1472     1.20689E+01    -1.08810E+01     0.00000E+00     0.00000E+00          0.00000E+00
      -1471     1.20525E+01    -1.08736E+01     0.00000E+00     0.00000E+00          0.00000E+00
      -1470     1.20361E+01    -1.08662E+01     0.00000E+00     0.00000E+00          0.00000E+00
      -1469     1.20198E+01    -1.08588E+01     0.00000E+00     0.00000E+00          0.00000E+00
      -1468     1.20034E+01    -1.08514E+01     0.00000E+00     0.00000E+00          0.00000E+00
      -1467     1.19871E+01    -1.08440E+01     0.00000E+00     0.00000E+00          0.00000E+00
      -1466     1.19707E+01    -1.08366E+01     0.00000E+00     0.00000E+00          0.00000E+00
      -1465     1.19544E+01    -1.08293E+01     0.00000E+00     0.00000E+00          0.00000E+00
      -1464     1.19381E+01    -1.08219E+01     0.00000E+00     0.00000E+00          0.00000E+00
      -1463     1.19218E+01    -1.08145E+01     0.00000E+00     0.00000E+00          0.00000E+00
      -1462     1.19055E+01    -1.08071E+01     0.00000E+00     0.00000E+00          0.00000E+00
      -1461     1.18892E+01    -1.07997E+01     0.00000E+00     0.00000E+00          0.00000E+00
      -1460     1.18729E+01    -1.07923E+01     0.00000E+00     0.00000E+00          0.00000E+00
      -1459     1.18567E+01    -1.07849E+01     0.00000E+00     0.00000E+00          0.00000E+00
      -1458     1.18404E+01    -1.07775E+01     0.00000E+00     0.00000E+00          0.00000E+00
      -1457     1.18242E+01    -1.07701E+01     0.00000E+00     0.00000E+00          0.00000E+00
      -1456     1.18080E+01    -1.07627E+01     0.00000E+00     0.00000E+00          0.00000E+00
      -1455     1.17918E+01    -1.07553E+01     0.00000E+00     0.00000E+00          0.00000E+00
      -1454     1.17756E+01    -1.07479E+01     0.00000E+00     0.00000E+00          0.00000E+00
      -1453     1.17594E+01    -1.07406E+01     0.00000E+00     0.00000E+00          0.00000E+00
      -1452     1.17432E+01    -1.07332E+01     0.00000E+00     0.00000E+00          0.00000E+00
      -1451     1.17270E+01    -1.07258E+01     0.00000E+00     0.00000E+00          0.00000E+00
      -1450     1.17109E+01    -1.07184E+01     0.00000E+00     0.00000E+00          0.00000E+00
      -1449     1.16947E+01    -1.07110E+01     0.00000E+00     0.00000E+00          0.00000E+00
      -1448     1.16786E+01    -1.07036E+01     0.00000E+00     0.00000E+00          0.00000E+00
      -1447     1.16625E+01    -1.06962E+01     0.00000E+00     0.00000E+00          0.00000E+00
      -1446     1.16463E+01    -1.06888E+01     0.00000E+00     0.00000E+00          0.00000E+00
      -1445     1.16302E+01    -1.06814E+01     0.00000E+00     0.00000E+00          0.00000E+00
      -1444     1.16141E+01    -1.06740E+01     0.00000E+00     0.00000E+00          0.00000E+00
      -1443     1.15981E+01    -1.06666E+01     0.00000E+00     0.00000E+00          0.00000E+00
      -1442     1.15820E+01    -1.06592E+01     0.00000E+00     0.00000E+00          0.00000E+00
      -1441     1.15659E+01    -1.06518E+01     0.00000E+00     0.00000E+00          0.00000E+00
      -1440     1.15499E+01    -1.06445E+01     0.00000E+00     0.00000E+00          0.00000E+00
      -1439     1.15339E+01    -1.06371E+01     0.00000E+00     0.00000E+00          0.00000E+00
      -1438     1.15178E+01    -1.06297E+01     0.00000E+00     0.00000E+00          0.00000E+00
      -1437     1.15018E+01    -1.06223E+01     0.00000E+00     0.00000E+00          0.00000E+00
      -1436     1.14858E+01    -1.06149E+01     0.00000E+00     0.00000E+00          0.00000E+00
      -1435     1.14698E+01    -1.06075E+01     0.00000E+00     0.00000E+00          0.00000E+00
      -1434     1.14538E+01    -1.06001E+01     0.00000E+00     0.00000E+00          0.00000E+00
      -1433     1.14379E+01    -1.05927E+01     0.00000E+00     0.00000E+00          0.00000E+00
      -1432     1.14219E+01    -1.05853E+01     0.00000E+00     0.00000E+00          0.00000E+00
      -1431     1.14060E+01    -1.05779E+01     0.00000E+00     0.00000E+00          0.00000E+00
      -1430     1.13900E+01    -1.05705E+01     0.00000E+00     0.00000E+00          0.00000E+00
      -1429     1.13741E+01    -1.05631E+01     0.00000E+00     0.00000E+00          0.00000E+00
      -1428     1.13582E+01    -1.05558E+01     0.00000E+00     0.00000E+00          0.00000E+00
      -1427     1.13423E+01    -1.05484E+01     0.00000E+00     0.00000E+00          0.00000E+00
      -1426     1.13264E+01    -1.05410E+01     0.00000E+00     0.00000E+00          0.00000E+00
      -1425     1.13105E+01    -1.05336E+01     0.00000E+00     0.00000E+00          0.00000E+00
      -1424     1.12947E+01    -1.05262E+01     0.00000E+00     0.00000E+00          0.00000E+00
      -1423     1.12788E+01    -1.05188E+01     0.00000E+00     0.00000E+00          0.00000E+00
      -1422     1.12629E+01    -1.05114E+01     0.00000E+00     0.00000E+00          0.00000E+00
      -1421     1.12471E+01    -1.05040E+01     0.00000E+00     0.00000E+00          0.00000E+00
      -1420     1.12313E+01    -1.04966E+01     0.00000E+00     0.00000E+00          0.00000E+00
      -1419     1.12155E+01    -1.04892E+01     0.00000E+00     0.00000E+00          0.00000E+00
      -1418     1.11997E+01    -1.04818E+01     0.00000E+00     0.00000E+00          0.00000E+00
      -1417     1.11839E+01    -1.04744E+01     0.00000E+00     0.00000E+00          0.00000E+00
      -1416     1.11681E+01    -1.04670E+01     0.00000E+00     0.00000E+00          0.00000E+00
      -1415     1.11523E+01    -1.04597E+01     0.00000E+00     0.00000E+00          0.00000E+00
      -1414     1.11366E+01    -1.04523E+01     0.00000E+00     0.00000E+00          0.00000E+00
      -1413     1.11208E+01    -1.04449E+01     0.00000E+00     0.00000E+00          0.00000E+00
      -1412     1.11051E+01    -1.04375E+01     0.00000E+00     0.00000E+00          0.00000E+00
      -1411     1.10894E+01    -1.04301E+01     0.00000E+00     0.00000E+00          0.00000E+00
      -1410     1.10737E+01    -1.04227E+01     0.00000E+00     0.00000E+00          0.00000E+00
      -1409     1.10580E+01    -1.04153E+01     0.00000E+00     0.00000E+00          0.00000E+00
      -1408     1.10423E+01    -1.04079E+01     0.00000E+00     0.00000E+00          0.00000E+00
      -1407     1.10266E+01    -1.04005E+01     0.00000E+00     0.00000E+00          0.00000E+00
      -1406     1.10109E+01    -1.03931E+01     0.00000E+00     0.00000E+00          0.00000E+00
      -1405     1.09953E+01    -1.03857E+01     0.00000E+00     0.00000E+00          0.00000E+00
      -1404     1.09796E+01    -1.03783E+01     0.00000E+00     0.00000E+00          0.00000E+00
      -1403     1.09640E+01    -1.03710E+01     0.00000E+00     0.00000E+00          0.00000E+00
      -1402     1.09484E+01    -1.03636E+01     0.00000E+00     0.00000E+00          0.00000E+00
      -1401     1.09327E+01    -1.03562E+01     0.00000E+00     0.00000E+00          0.00000E+00
      -1400     1.09171E+01    -1.03488E+01     0.00000E+00     0.00000E+00          0.00000E+00
      -1399     1.09016E+01    -1.03414E+01     0.00000E+00     0.00000E+00          0.00000E+00
      -1398     1.08860E+01    -1.03340E+01     0.00000E+00     0.00000E+00          0.00000E+00
      -1397     1.08704E+01    -1.03266E+01     0.00000E+00     0.00000E+00          0.00000E+00
      -1396     1.08548E+01    -1.03192E+01     0.00000E+00     0.00000E+00          0.00000E+00
      -1395     1.08393E+01    -1.03118E+01     0.00000E+00     0.00000E+00          0.00000E+00
      -1394     1.08238E+01    -1.03044E+01     0.00000E+00     0.00000E+00          0.00000E+00
      -1393     1.08082E+01    -1.02970E+01     0.00000E+00     0.00000E+00          0.00000E+00
      -1392     1.07927E+01    -1.02896E+01     0.00000E+00     0.00000E+00          0.00000E+00
      -1391     1.07772E+01    -1.02822E+01     0.00000E+00     0.00000E+00          0.00000E+00
      -1390     1.07617E+01    -1.02749E+01     0.00000E+00     0.00000E+00          0.00000E+00
      -1389     1.07463E+01    -1.02675E+01     0.00000E+00     0.00000E+00          0.00000E+00
      -1388     1.07308E+01    -1.02601E+01     0.00000E+00     0.00000E+00          0.00000E+00
      -1387     1.07153E+01    -1.02527E+01     0.00000E+00     0.00000E+00          0.00000E+00
      -1386     1.06999E+01    -1.02453E+01     0.00000E+00     0.00000E+00          0.00000E+00
      -1385     1.06845E+01    -1.02379E+01     0.00000E+00     0.00000E+00          0.00000E+00
      -1384     1.06690E+01    -1.02305E+01     0.00000E+00     0.00000E+00          0.00000E+00
      -1383     1.06536E+01    -1.02231E+01     0.00000E+00     0.00000E+00          0.00000E+00
      -1382     1.06382E+01    -1.02157E+01     0.00000E+00     0.00000E+00          0.00000E+00
      -1381     1.06228E+01    -1.02083E+01     0.00000E+00     0.00000E+00          0.00000E+00
      -1380     1.06075E+01    -1.02009E+01     0.00000E+00     0.00000E+00          0.00000E+00
      -1379     1.05921E+01    -1.01935E+01     0.00000E+00     0.00000E+00          0.00000E+00
      -1378     1.05767E+01    -1.01862E+01     0.00000E+00     0.00000E+00          0.00000E+00
      -1377     1.05614E+01    -1.01788E+01     0.00000E+00     0.00000E+00          0.00000E+00
      -1376     1.05460E+01    -1.01714E+01     0.00000E+00     0.00000E+00          0.00000E+00
      -1375     1.05307E+01    -1.01640E+01     0.00000E+00     0.00000E+00          0.00000E+00
      -1374     1.05154E+01    -1.01566E+01     0.00000E+00     0.00000E+00          0.00000E+00
      -1373     1.05001E+01    -1.01492E+01     0.00000E+00     0.00000E+00          0.00000E+00
      -1372     1.04848E+01    -1.01418E+01     0.00000E+00     0.00000E+00          0.00000E+00
      -1371     1.04695E+01    -1.01344E+01     0.00000E+00     0.00000E+00          0.00000E+00
      -1370     1.04543E+01    -1.01270E+01     0.00000E+00     0.00000E+00          0.00000E+00
      -1369     1.04390E+01    -1.01196E+01     0.00000E+00     0.00000E+00          0.00000E+00
      -1368     1.04238E+01    -1.01122E+01     0.00000E+00     0.00000E+00          0.00000E+00
      -1367     1.04085E+01    -1.01048E+01     0.00000E+00     0.00000E+00          0.00000E+00
      -1366     1.03933E+01    -1.00974E+01     0.00000E+00     0.00000E+00          0.00000E+00
      -1365     1.03781E+01    -1.00901E+01     0.00000E+00     0.00000E+00          0.00000E+00
      -1364     1.03629E+01    -1.00827E+01     0.00000E+00     0.00000E+00          0.00000E+00
      -1363     1.03477E+01    -1.00753E+01     0.00000E+00     0.00000E+00          0.00000E+00
      -1362     1.03325E+01    -1.00679E+01     0.00000E+00     0.00000E+00          0.00000E+00
      -1361     1.03174E+01    -1.00605E+01     0.00000E+00     0.00000E+00          0.00000E+00
      -1360     1.03022E+01    -1.00531E+01     0.00000E+00     0.00000E+00          0.00000E+00
      -1359     1.02871E+01    -1.00457E+01     0.00000E+00     0.00000E+00          0.00000E+00
      -1358     1.02719E+01    -1.00383E+01     0.00000E+00     0.00000E+00          0.00000E+00
      -1357     1.02568E+01    -1.00309E+01     0.00000E+00     0.00000E+00          0.00000E+00
      -1356     1.02417E+01    -1.00235E+01     0.00000E+00     0.00000E+00          0.00000E+00
      -1355     1.02266E+01    -1.00161E+01     0.00000E+00     0.00000E+00          0.00000E+00
      -1354     1.02115E+01    -1.00087E+01     0.00000E+00     0.00000E+00          0.00000E+00
      -1353     1.01964E+01    -1.00014E+01     0.00000E+00     0.00000E+00          0.00000E+00
      -1352     1.01814E+01    -9.99396E+00     0.00000E+00     0.00000E+00          0.00000E+00
      -1351     1.01663E+01    -9.98657E+00     0.00000E+00     0.00000E+00          0.00000E+00
      -1350     1.01513E+01    -9.97918E+00     0.00000E+00     0.00000E+00          0.00000E+00
      -1349     1.01362E+01    -9.97178E+00     0.00000E+00     0.00000E+00          0.00000E+00
      -1348     1.01212E+01    -9.96439E+00     0.00000E+00     0.00000E+00          0.00000E+00
      -1347     1.01062E+01    -9.95700E+00     0.00000E+00     0.00000E+00          0.00000E+00
      -1346     1.00912E+01    -9.94961E+00     0.00000E+00     0.00000E+00          0.00000E+00
      -1345     1.00762E+01    -9.94222E+00     0.00000E+00     0.00000E+00          0.00000E+00
      -1344     1.00612E+01    -9.93482E+00     0.00000E+00     0.00000E+00          0.00000E+00
      -1343     1.00463E+01    -9.92743E+00     0.00000E+00     0.00000E+00          0.00000E+00
      -1342     1.00313E+01    -9.92004E+00     0.00000E+00     0.00000E+00          0.00000E+00
      -1341     1.00164E+01    -9.91265E+00     0.00000E+00     0.00000E+00          0.00000E+00
      -1340     1.00014E+01    -9.90526E+00     0.00000E+00     0.00000E+00          0.00000E+00
      -1339     9.98652E+00    -9.89787E+00     0.00000E+00     0.00000E+00          0.00000E+00
      -1338     9.97160E+00    -9.89047E+00     0.00000E+00     0.00000E+00          0.00000E+00
      -1337     9.95670E+00    -9.88308E+00     0.00000E+00     0.00000E+00          0.00000E+00
      -1336     9.94182E+00    -9.87569E+00     0.00000E+00     0.00000E+00          0.00000E+00
      -1335     9.92694E+00    -9.86830E+00     0.00000E+00     0.00000E+00          0.00000E+00
      -1334     9.91207E+00    -9.86090E+00     0.00000E+00     0.00000E+00          0.00000E+00
      -1333     9.89722E+00    -9.85351E+00     0.00000E+00     0.00000E+00          0.00000E+00
      -1332     9.88237E+00    -9.84612E+00     0.00000E+00     0.00000E+00          0.00000E+00
      -1331     9.86754E+00    -9.83873E+00     0.00000E+00     0.00000E+00          0.00000E+00
      -1330     9.85272E+00    -9.83134E+00     0.00000E+00     0.00000E+00          0.00000E+00
      -1329     9.83791E+00    -9.82395E+00     0.00000E+00     0.00000E+00          0.00000E+00
      -1328     9.82311E+00    -9.81655E+00     0.00000E+00     0.00000E+00          0.00000E+00
      -1327     9.80832E+00    -9.80916E+00     0.00000E+00     0.00000E+00          0.00000E+00
      -1326     9.79355E+00    -9.80177E+00     0.00000E+00     0.00000E+00          0.00000E+00
      -1325     9.77878E+00    -9.79438E+00     0.00000E+00     0.00000E+00          0.00000E+00
      -1324     9.76402E+00    -9.78699E+00     0.00000E+00     0.00000E+00          0.00000E+00
      -1323     9.74928E+00    -9.77959E+00     0.00000E+00     0.00000E+00          0.00000E+00
      -1322     9.73455E+00    -9.77220E+00     0.00000E+00     0.00000E+00          0.00000E+00
      -1321     9.71983E+00    -9.76481E+00     0.00000E+00     0.00000E+00          0.00000E+00
      -1320     9.70512E+00    -9.75742E+00     0.00000E+00     0.00000E+00          0.00000E+00
      -1319     9.69042E+00    -9.75002E+00     0.00000E+00     0.00000E+00          0.00000E+00
      -1318     9.67573E+00    -9.74263E+00     0.00000E+00     0.00000E+00          0.00000E+00
      -1317     9.66105E+00    -9.73524E+00     0.00000E+00     0.00000E+00          0.00000E+00
      -1316     9.64639E+00    -9.72785E+00     0.00000E+00     0.00000E+00          0.00000E+00
      -1315     9.63173E+00    -9.72046E+00     0.00000E+00     0.00000E+00          0.00000E+00
      -1314     9.61709E+00    -9.71307E+00     0.00000E+00     0.00000E+00          0.00000E+00
      -1313     9.60246E+00    -9.70567E+00     0.00000E+00     0.00000E+00          0.00000E+00
      -1312     9.58783E+00    -9.69828E+00     0.00000E+00     0.00000E+00          0.00000E+00
      -1311     9.57323E+00    -9.69089E+00     0.00000E+00     0.00000E+00          0.00000E+00
      -1310     9.55863E+00    -9.68350E+00     0.00000E+00     0.00000E+00          0.00000E+00
      -1309     9.54404E+00    -9.67611E+00     0.00000E+00     0.00000E+00          0.00000E+00
      -1308     9.52946E+00    -9.66871E+00     0.00000E+00     0.00000E+00          0.00000E+00
      -1307     9.51490E+00    -9.66132E+00     0.00000E+00     0.00000E+00          0.00000E+00
      -1306     9.50034E+00    -9.65393E+00     0.00000E+00     0.00000E+00          0.00000E+00
      -1305     9.48580E+00    -9.64654E+00     0.00000E+00     0.00000E+00          0.00000E+00
      -1304     9.47127E+00    -9.63915E+00     0.00000E+00     0.00000E+00          0.00000E+00
      -1303     9.45675E+00    -9.63175E+00     0.00000E+00     0.00000E+00          0.00000E+00
      -1302     9.44223E+00    -9.62436E+00     0.00000E+00     0.00000E+00          0.00000E+00
      -1301     9.42774E+00    -9.61697E+00     0.00000E+00     0.00000E+00          0.00000E+00
      -1300     9.41325E+00    -9.60958E+00     0.00000E+00     0.00000E+00          0.00000E+00
      -1299     9.39877E+00    -9.60219E+00     0.00000E+00     0.00000E+00          0.00000E+00
      -1298     9.38431E+00    -9.59479E+00     0.00000E+00     0.00000E+00          0.00000E+00
      -1297     9.36985E+00    -9.58740E+00     0.00000E+00     0.00000E+00          0.00000E+00
      -1296     9.35541E+00    -9.58001E+00     0.00000E+00     0.00000E+00          0.00000E+00
      -1295     9.34098E+00    -9.57262E+00     0.00000E+00     0.00000E+00          0.00000E+00
      -1294     9.32656E+00    -9.56523E+00     0.00000E+00     0.00000E+00          0.00000E+00
      -1293     9.31215E+00    -9.55783E+00     0.00000E+00     0.00000E+00          0.00000E+00
      -1292     9.29775E+00    -9.55044E+00     0.00000E+00     0.00000E+00          0.00000E+00
      -1291     9.28336E+00    -9.54305E+00     0.00000E+00     0.00000E+00          0.00000E+00
      -1290     9.26899E+00    -9.53566E+00     0.00000E+00     0.00000E+00          0.00000E+00
      -1289     9.25462E+00    -9.52827E+00     0.00000E+00     0.00000E+00          0.00000E+00
      -1288     9.24027E+00    -9.52087E+00     0.00000E+00     0.00000E+00          0.00000E+00
      -1287     9.22593E+00    -9.51348E+00     0.00000E+00     0.00000E+00          0.00000E+00
      -1286     9.21159E+00    -9.50609E+00     0.00000E+00     0.00000E+00          0.00000E+00
      -1285     9.19727E+00    -9.49870E+00     0.00000E+00     0.00000E+00          0.00000E+00
      -1284     9.18296E+00    -9.49131E+00     0.00000E+00     0.00000E+00          0.00000E+00
      -1283     9.16866E+00    -9.48391E+00     0.00000E+00     0.00000E+00          0.00000E+00
      -1282     9.15438E+00    -9.47652E+00     0.00000E+00     0.00000E+00          0.00000E+00
      -1281     9.14010E+00    -9.46913E+00     0.00000E+00     0.00000E+00          0.00000E+00
      -1280     9.12584E+00    -9.46174E+00     0.00000E+00     0.00000E+00          0.00000E+00
      -1279     9.11158E+00    -9.45435E+00     0.00000E+00     0.00000E+00          0.00000E+00
      -1278     9.09734E+00    -9.44695E+00     0.00000E+00     0.00000E+00          0.00000E+00
      -1277     9.08311E+00    -9.43956E+00     0.00000E+00     0.00000E+00          0.00000E+00
      -1276     9.06889E+00    -9.43217E+00     0.00000E+00     0.00000E+00          0.00000E+00
      -1275     9.05468E+00    -9.42478E+00     0.00000E+00     0.00000E+00          0.00000E+00
      -1274     9.04048E+00    -9.41739E+00     0.00000E+00     0.00000E+00          0.00000E+00
      -1273     9.02630E+00    -9.40999E+00     0.00000E+00     0.00000E+00          0.00000E+00
      -1272     9.01212E+00    -9.40260E+00     0.00000E+00     0.00000E+00          0.00000E+00
      -1271     8.99796E+00    -9.39521E+00     0.00000E+00     0.00000E+00          0.00000E+00
      -1270     8.98380E+00    -9.38782E+00     0.00000E+00     0.00000E+00          0.00000E+00
      -1269     8.96966E+00    -9.38043E+00     0.00000E+00     0.00000E+00          0.00000E+00
      -1268     8.95553E+00    -9.37303E+00     0.00000E+00     0.00000E+00          0.00000E+00
      -1267     8.94141E+00    -9.36564E+00     0.00000E+00     0.00000E+00          0.00000E+00
      -1266     8.92730E+00    -9.35825E+00     0.00000E+00     0.00000E+00          0.00000E+00
      -1265     8.91320E+00    -9.35086E+00     0.00000E+00     0.00000E+00          0.00000E+00
      -1264     8.89912E+00    -9.34347E+00     0.00000E+00     0.00000E+00          0.00000E+00
      -1263     8.88504E+00    -9.33607E+00     0.00000E+00     0.00000E+00          0.00000E+00
      -1262     8.87098E+00    -9.32868E+00     0.00000E+00     0.00000E+00          0.00000E+00
      -1261     8.85693E+00    -9.32129E+00     0.00000E+00     0.00000E+00          0.00000E+00
      -1260     8.84288E+00    -9.31390E+00     0.00000E+00     0.00000E+00          0.00000E+00
      -1259     8.82885E+00    -9.30651E+00     0.00000E+00     0.00000E+00          0.00000E+00
      -1258     8.81483E+00    -9.29911E+00     0.00000E+00     0.00000E+00          0.00000E+00
      -1257     8.80083E+00    -9.29172E+00     0.00000E+00     0.00000E+00          0.00000E+00
      -1256     8.78683E+00    -9.28433E+00     0.00000E+00     0.00000E+00          0.00000E+00
      -1255     8.77284E+00    -9.27694E+00     0.00000E+00     0.00000E+00          0.00000E+00
      -1254     8.75887E+00    -9.26955E+00     0.00000E+00     0.00000E+00          0.00000E+00
      -1253     8.74490E+00    -9.26215E+00     0.00000E+00     0.00000E+00          0.00000E+00
      -1252     8.73095E+00    -9.25476E+00     0.00000E+00     0.00000E+00          0.00000E+00
      -1251     8.71701E+00    -9.24737E+00     0.00000E+00     0.00000E+00          0.00000E+00
      -1250     8.70308E+00    -9.23998E+00     0.00000E+00     0.00000E+00          0.00000E+00
      -1249     8.68916E+00    -9.23259E+00     0.00000E+00     0.00000E+00          0.00000E+00
      -1248     8.67525E+00    -9.22519E+00     0.00000E+00     0.00000E+00          0.00000E+00
      -1247     8.66135E+00    -9.21780E+00     0.00000E+00     0.00000E+00          0.00000E+00
      -1246     8.64747E+00    -9.21041E+00     0.00000E+00     0.00000E+00          0.00000E+00
      -1245     8.63359E+00    -9.20302E+00     0.00000E+00     0.00000E+00          0.00000E+00
      -1244     8.61973E+00    -9.19563E+00     0.00000E+00     0.00000E+00          0.00000E+00
      -1243     8.60588E+00    -9.18823E+00     0.00000E+00     0.00000E+00          0.00000E+00
      -1242     8.59203E+00    -9.18084E+00     0.00000E+00     0.00000E+00          0.00000E+00
      -1241     8.57820E+00    -9.17345E+00     0.00000E+00     0.00000E+00          0.00000E+00
      -1240     8.56439E+00    -9.16606E+00     0.00000E+00     0.00000E+00          0.00000E+00
      -1239     8.55058E+00    -9.15867E+00     0.00000E+00     0.00000E+00          0.00000E+00
      -1238     8.53678E+00    -9.15127E+00     0.00000E+00     0.00000E+00          0.00000E+00
      -1237     8.52299E+00    -9.14388E+00     0.00000E+00     0.00000E+00          0.00000E+00
      -1236     8.50922E+00    -9.13649E+00     0.00000E+00     0.00000E+00          0.00000E+00
      -1235     8.49546E+00    -9.12910E+00     0.00000E+00     0.00000E+00          0.00000E+00
      -1234     8.48171E+00    -9.12171E+00     0.00000E+00     0.00000E+00          0.00000E+00
      -1233     8.46797E+00    -9.11432E+00     0.00000E+00     0.00000E+00          0.00000E+00
      -1232     8.45424E+00    -9.10692E+00     0.00000E+00     0.00000E+00          0.00000E+00
      -1231     8.44052E+00    -9.09953E+00     0.00000E+00     0.00000E+00          0.00000E+00
      -1230     8.42681E+00    -9.09214E+00     0.00000E+00     0.00000E+00          0.00000E+00
      -1229     8.41311E+00    -9.08475E+00     0.00000E+00     0.00000E+00          0.00000E+00
      -1228     8.39942E+00    -9.07735E+00     0.00000E+00     0.00000E+00          0.00000E+00
      -1227     8.38575E+00    -9.06996E+00     0.00000E+00     0.00000E+00          0.00000E+00
      -1226     8.37209E+00    -9.06257E+00     0.00000E+00     0.00000E+00          0.00000E+00
      -1225     8.35844E+00    -9.05518E+00     0.00000E+00     0.00000E+00          0.00000E+00
      -1224     8.34480E+00    -9.04779E+00     0.00000E+00     0.00000E+00          0.00000E+00
      -1223     8.33117E+00    -9.04039E+00     0.00000E+00     0.00000E+00          0.00000E+00
      -1222     8.31755E+00    -9.03300E+00     0.00000E+00     0.00000E+00          0.00000E+00
      -1221     8.30394E+00    -9.02561E+00     0.00000E+00     0.00000E+00          0.00000E+00
      -1220     8.29034E+00    -9.01822E+00     0.00000E+00     0.00000E+00          0.00000E+00
      -1219     8.27676E+00    -9.01083E+00     0.00000E+00     0.00000E+00          0.00000E+00
      -1218     8.26318E+00    -9.00344E+00     0.00000E+00     0.00000E+00          0.00000E+00
      -1217     8.24962E+00    -8.99604E+00     0.00000E+00     0.00000E+00          0.00000E+00
      -1216     8.23607E+00    -8.98865E+00     0.00000E+00     0.00000E+00          0.00000E+00
      -1215     8.22253E+00    -8.98126E+00     0.00000E+00     0.00000E+00          0.00000E+00
      -1214     8.20900E+00    -8.97387E+00     0.00000E+00     0.00000E+00          0.00000E+00
      -1213     8.19548E+00    -8.96648E+00     0.00000E+00     0.00000E+00          0.00000E+00
      -1212     8.18197E+00    -8.95908E+00     0.00000E+00     0.00000E+00          0.00000E+00
      -1211     8.16848E+00    -8.95169E+00     0.00000E+00     0.00000E+00          0.00000E+00
      -1210     8.15499E+00    -8.94430E+00     0.00000E+00     0.00000E+00          0.00000E+00
      -1209     8.14152E+00    -8.93691E+00     0.00000E+00     0.00000E+00          0.00000E+00
      -1208     8.12806E+00    -8.92951E+00     0.00000E+00     0.00000E+00          0.00000E+00
      -1207     8.11460E+00    -8.92212E+00     0.00000E+00     0.00000E+00          0.00000E+00
      -1206     8.10116E+00    -8.91473E+00     0.00000E+00     0.00000E+00          0.00000E+00
      -1205     8.08774E+00    -8.90734E+00     0.00000E+00     0.00000E+00          0.00000E+00
      -1204     8.07432E+00    -8.89995E+00     0.00000E+00     0.00000E+00          0.00000E+00
      -1203     8.06091E+00    -8.89256E+00     0.00000E+00     0.00000E+00          0.00000E+00
      -1202     8.04751E+00    -8.88516E+00     0.00000E+00     0.00000E+00          0.00000E+00
      -1201     8.03413E+00    -8.87777E+00     0.00000E+00     0.00000E+00          0.00000E+00
      -1200     8.02076E+00    -8.87038E+00     0.00000E+00     0.00000E+00          0.00000E+00
      -1199     8.00739E+00    -8.86299E+00     0.00000E+00     0.00000E+00          0.00000E+00
      -1198     7.99404E+00    -8.85560E+00     0.00000E+00     0.00000E+00          0.00000E+00
      -1197     7.98070E+00    -8.84820E+00     0.00000E+00     0.00000E+00          0.00000E+00
      -1196     7.96737E+00    -8.84081E+00     0.00000E+00     0.00000E+00          0.00000E+00
      -1195     7.95406E+00    -8.83342E+00     0.00000E+00     0.00000E+00          0.00000E+00
      -1194     7.94075E+00    -8.82603E+00     0.00000E+00     0.00000E+00          0.00000E+00
      -1193     7.92745E+00    -8.81863E+00     0.00000E+00     0.00000E+00          0.00000E+00
      -1192     7.91417E+00    -8.81124E+00     0.00000E+00     0.00000E+00          0.00000E+00
      -1191     7.90090E+00    -8.80385E+00     0.00000E+00     0.00000E+00          0.00000E+00
      -1190     7.88763E+00    -8.79646E+00     0.00000E+00     0.00000E+00          0.00000E+00
      -1189     7.87438E+00    -8.78907E+00     0.00000E+00     0.00000E+00          0.00000E+00
      -1188     7.86114E+00    -8.78168E+00     0.00000E+00     0.00000E+00          0.00000E+00
      -1187     7.84792E+00    -8.77428E+00     0.00000E+00     0.00000E+00          0.00000E+00
      -1186     7.83470E+00    -8.76689E+00     0.00000E+00     0.00000E+00          0.00000E+00
      -1185     7.82149E+00    -8.75950E+00     0.00000E+00     0.00000E+00          0.00000E+00
      -1184     7.80830E+00    -8.75211E+00     0.00000E+00     0.00000E+00          0.00000E+00
      -1183     7.79511E+00    -8.74472E+00     0.00000E+00     0.00000E+00          0.00000E+00
      -1182     7.78194E+00    -8.73732E+00     0.00000E+00     0.00000E+00          0.00000E+00
      -1181     7.76878E+00    -8.72993E+00     0.00000E+00     0.00000E+00          0.00000E+00
      -1180     7.75563E+00    -8.72254E+00     0.00000E+00     0.00000E+00          0.00000E+00
      -1179     7.74249E+00    -8.71515E+00     0.00000E+00     0.00000E+00          0.00000E+00
      -1178     7.72936E+00    -8.70776E+00     0.00000E+00     0.00000E+00          0.00000E+00
      -1177     7.71624E+00    -8.70036E+00     0.00000E+00     0.00000E+00          0.00000E+00
      -1176     7.70313E+00    -8.69297E+00     0.00000E+00     0.00000E+00          0.00000E+00
      -1175     7.69004E+00    -8.68558E+00     0.00000E+00     0.00000E+00          0.00000E+00
      -1174     7.67696E+00    -8.67819E+00     0.00000E+00     0.00000E+00          0.00000E+00
      -1173     7.66388E+00    -8.67080E+00     0.00000E+00     0.00000E+00          0.00000E+00
      -1172     7.65082E+00    -8.66340E+00     0.00000E+00     0.00000E+00          0.00000E+00
      -1171     7.63777E+00    -8.65601E+00     0.00000E+00     0.00000E+00          0.00000E+00
      -1170     7.62473E+00    -8.64862E+00     0.00000E+00     0.00000E+00          0.00000E+00
      -1169     7.61170E+00    -8.64123E+00     0.00000E+00     0.00000E+00          0.00000E+00
      -1168     7.59869E+00    -8.63384E+00     0.00000E+00     0.00000E+00          0.00000E+00
      -1167     7.58568E+00    -8.62644E+00     0.00000E+00     0.00000E+00          0.00000E+00
      -1166     7.57269E+00    -8.61905E+00     0.00000E+00     0.00000E+00          0.00000E+00
      -1165     7.55970E+00    -8.61166E+00     0.00000E+00     0.00000E+00          0.00000E+00
      -1164     7.54673E+00    -8.60427E+00     0.00000E+00     0.00000E+00          0.00000E+00
      -1163     7.53377E+00    -8.59688E+00     0.00000E+00     0.00000E+00          0.00000E+00
      -1162     7.52082E+00    -8.58948E+00     0.00000E+00     0.00000E+00          0.00000E+00
      -1161     7.50788E+00    -8.58209E+00     0.00000E+00     0.00000E+00          0.00000E+00
      -1160     7.49495E+00    -8.57470E+00     0.00000E+00     0.00000E+00          0.00000E+00
      -1159     7.48204E+00    -8.56731E+00     0.00000E+00     0.00000E+00          0.00000E+00
      -1158     7.46913E+00    -8.55992E+00     0.00000E+00     0.00000E+00          0.00000E+00
      -1157     7.45623E+00    -8.55252E+00     0.00000E+00     0.00000E+00          0.00000E+00
      -1156     7.44335E+00    -8.54513E+00     0.00000E+00     0.00000E+00          0.00000E+00
      -1155     7.43048E+00    -8.53774E+00     0.00000E+00     0.00000E+00          0.00000E+00
      -1154     7.41762E+00    -8.53035E+00     0.00000E+00     0.00000E+00          0.00000E+00
      -1153     7.40477E+00    -8.52296E+00     0.00000E+00     0.00000E+00          0.00000E+00
      -1152     7.39193E+00    -8.51556E+00     0.00000E+00     0.00000E+00          0.00000E+00
      -1151     7.37910E+00    -8.50817E+00     0.00000E+00     0.00000E+00          0.00000E+00
      -1150     7.36629E+00    -8.50078E+00     0.00000E+00     0.00000E+00          0.00000E+00
      -1149     7.35348E+00    -8.49339E+00     0.00000E+00     0.00000E+00          0.00000E+00
      -1148     7.34069E+00    -8.48600E+00     0.00000E+00     0.00000E+00          0.00000E+00
      -1147     7.32790E+00    -8.47860E+00     0.00000E+00     0.00000E+00          0.00000E+00
      -1146     7.31513E+00    -8.47121E+00     0.00000E+00     0.00000E+00          0.00000E+00
      -1145     7.30237E+00    -8.46382E+00     0.00000E+00     0.00000E+00          0.00000E+00
      -1144     7.28962E+00    -8.45643E+00     0.00000E+00     0.00000E+00          0.00000E+00
      -1143     7.27688E+00    -8.44904E+00     0.00000E+00     0.00000E+00          0.00000E+00
      -1142     7.26416E+00    -8.44164E+00     0.00000E+00     0.00000E+00          0.00000E+00
      -1141     7.25144E+00    -8.43425E+00     0.00000E+00     0.00000E+00          0.00000E+00
      -1140     7.23873E+00    -8.42686E+00     0.00000E+00     0.00000E+00          0.00000E+00
      -1139     7.22604E+00    -8.41947E+00     0.00000E+00     0.00000E+00          0.00000E+00
      -1138     7.21336E+00    -8.41208E+00     0.00000E+00     0.00000E+00          0.00000E+00
      -1137     7.20068E+00    -8.40468E+00     0.00000E+00     0.00000E+00          0.00000E+00
      -1136     7.18802E+00    -8.39729E+00     0.00000E+00     0.00000E+00          0.00000E+00
      -1135     7.17537E+00    -8.38990E+00     0.00000E+00     0.00000E+00          0.00000E+00
      -1134     7.16274E+00    -8.38251E+00     0.00000E+00     0.00000E+00          0.00000E+00
      -1133     7.15011E+00    -8.37512E+00     0.00000E+00     0.00000E+00          0.00000E+00
      -1132     7.13749E+00    -8.36772E+00     0.00000E+00     0.00000E+00          0.00000E+00
      -1131     7.12489E+00    -8.36033E+00     0.00000E+00     0.00000E+00          0.00000E+00
      -1130     7.11230E+00    -8.35294E+00     0.00000E+00     0.00000E+00          0.00000E+00
      -1129     7.09971E+00    -8.34555E+00     0.00000E+00     0.00000E+00          0.00000E+00
      -1128     7.08714E+00    -8.33816E+00     0.00000E+00     0.00000E+00          0.00000E+00
      -1127     7.07458E+00    -8.33076E+00     0.00000E+00     0.00000E+00          0.00000E+00
      -1126     7.06203E+00    -8.32337E+00     0.00000E+00     0.00000E+00          0.00000E+00
      -1125     7.04949E+00    -8.31598E+00     0.00000E+00     0.00000E+00          0.00000E+00
      -1124     7.03697E+00    -8.30859E+00     0.00000E+00     0.00000E+00          0.00000E+00
      -1123     7.02445E+00    -8.30120E+00     0.00000E+00     0.00000E+00          0.00000E+00
      -1122     7.01195E+00    -8.29380E+00     0.00000E+00     0.00000E+00          0.00000E+00
      -1121     6.99945E+00    -8.28641E+00     0.00000E+00     0.00000E+00          0.00000E+00
      -1120     6.98697E+00    -8.27902E+00     0.00000E+00     0.00000E+00          0.00000E+00
      -1119     6.97450E+00    -8.27163E+00     0.00000E+00     0.00000E+00          0.00000E+00
      -1118     6.96204E+00    -8.26424E+00     0.00000E+00     0.00000E+00          0.00000E+00
      -1117     6.94959E+00    -8.25684E+00     0.00000E+00     0.00000E+00          0.00000E+00
      -1116     6.93715E+00    -8.24945E+00     0.00000E+00     0.00000E+00          0.00000E+00
      -1115     6.92473E+00    -8.24206E+00     0.00000E+00     0.00000E+00          0.00000E+00
      -1114     6.91231E+00    -8.23467E+00     0.00000E+00     0.00000E+00          0.00000E+00
      -1113     6.89991E+00    -8.22728E+00     0.00000E+00     0.00000E+00          0.00000E+00
      -1112     6.88751E+00    -8.21988E+00     0.00000E+00     0.00000E+00          0.00000E+00
      -1111     6.87513E+00    -8.21249E+00     0.00000E+00     0.00000E+00          0.00000E+00
      -1110     6.86276E+00    -8.20510E+00     0.00000E+00     0.00000E+00          0.00000E+00
      -1109     6.85040E+00    -8.19771E+00     0.00000E+00     0.00000E+00          0.00000E+00
      -1108     6.83805E+00    -8.19032E+00     0.00000E+00     0.00000E+00          0.00000E+00
      -1107     6.82571E+00    -8.18293E+00     0.00000E+00     0.00000E+00          0.00000E+00
      -1106     6.81339E+00    -8.17553E+00     0.00000E+00     0.00000E+00          0.00000E+00
      -1105     6.80107E+00    -8.16814E+00     0.00000E+00     0.00000E+00          0.00000E+00
      -1104     6.78877E+00    -8.16075E+00     0.00000E+00     0.00000E+00          0.00000E+00
      -1103     6.77648E+00    -8.15336E+00     0.00000E+00     0.00000E+00          0.00000E+00
      -1102     6.76419E+00    -8.14596E+00     0.00000E+00     0.00000E+00          0.00000E+00
      -1101     6.75192E+00    -8.13857E+00     0.00000E+00     0.00000E+00          0.00000E+00
      -1100     6.73966E+00    -8.13118E+00     0.00000E+00     0.00000E+00          0.00000E+00
      -1099     6.72742E+00    -8.12379E+00     0.00000E+00     0.00000E+00          0.00000E+00
      -1098     6.71518E+00    -8.11640E+00     0.00000E+00     0.00000E+00          0.00000E+00
      -1097     6.70295E+00    -8.10900E+00     0.00000E+00     0.00000E+00          0.00000E+00
      -1096     6.69074E+00    -8.10161E+00     0.00000E+00     0.00000E+00          0.00000E+00
      -1095     6.67853E+00    -8.09422E+00     0.00000E+00     0.00000E+00          0.00000E+00
      -1094     6.66634E+00    -8.08683E+00     0.00000E+00     0.00000E+00          0.00000E+00
      -1093     6.65416E+00    -8.07944E+00     0.00000E+00     0.00000E+00          0.00000E+00
      -1092     6.64199E+00    -8.07205E+00     0.00000E+00     0.00000E+00          0.00000E+00
      -1091     6.62983E+00    -8.06465E+00     0.00000E+00     0.00000E+00          0.00000E+00
      -1090     6.61768E+00    -8.05726E+00     0.00000E+00     0.00000E+00          0.00000E+00
      -1089     6.60555E+00    -8.04987E+00     0.00000E+00     0.00000E+00          0.00000E+00
      -1088     6.59342E+00    -8.04248E+00     0.00000E+00     0.00000E+00          0.00000E+00
      -1087     6.58130E+00    -8.03509E+00     0.00000E+00     0.00000E+00          0.00000E+00
      -1086     6.56920E+00    -8.02769E+00     0.00000E+00     0.00000E+00          0.00000E+00
      -1085     6.55711E+00    -8.02030E+00     0.00000E+00     0.00000E+00          0.00000E+00
      -1084     6.54503E+00    -8.01291E+00     0.00000E+00     0.00000E+00          0.00000E+00
      -1083     6.53296E+00    -8.00552E+00     0.00000E+00     0.00000E+00          0.00000E+00
      -1082     6.52090E+00    -7.99813E+00     0.00000E+00     0.00000E+00          0.00000E+00
      -1081     6.50885E+00    -7.99073E+00     0.00000E+00     0.00000E+00          0.00000E+00
      -1080     6.49681E+00    -7.98334E+00     0.00000E+00     0.00000E+00          0.00000E+00
      -1079     6.48479E+00    -7.97595E+00     0.00000E+00     0.00000E+00          0.00000E+00
      -1078     6.47277E+00    -7.96856E+00     0.00000E+00     0.00000E+00          0.00000E+00
      -1077     6.46077E+00    -7.96117E+00     0.00000E+00     0.00000E+00          0.00000E+00
      -1076     6.44878E+00    -7.95377E+00     0.00000E+00     0.00000E+00          0.00000E+00
      -1075     6.43680E+00    -7.94638E+00     0.00000E+00     0.00000E+00          0.00000E+00
      -1074     6.42483E+00    -7.93899E+00     0.00000E+00     0.00000E+00          0.00000E+00
      -1073     6.41287E+00    -7.93160E+00     0.00000E+00     0.00000E+00          0.00000E+00
      -1072     6.40092E+00    -7.92421E+00     0.00000E+00     0.00000E+00          0.00000E+00
      -1071     6.38898E+00    -7.91681E+00     0.00000E+00     0.00000E+00          0.00000E+00
      -1070     6.37706E+00    -7.90942E+00     0.00000E+00     0.00000E+00          0.00000E+00
      -1069     6.36514E+00    -7.90203E+00     0.00000E+00     0.00000E+00          0.00000E+00
      -1068     6.35324E+00    -7.89464E+00     0.00000E+00     0.00000E+00          0.00000E+00
      -1067     6.34135E+00    -7.88725E+00     0.00000E+00     0.00000E+00          0.00000E+00
      -1066     6.32947E+00    -7.87985E+00     0.00000E+00     0.00000E+00          0.00000E+00
      -1065     6.31760E+00    -7.87246E+00     0.00000E+00     0.00000E+00          0.00000E+00
      -1064     6.30574E+00    -7.86507E+00     0.00000E+00     0.00000E+00          0.00000E+00
      -1063     6.29389E+00    -7.85768E+00     0.00000E+00     0.00000E+00          0.00000E+00
      -1062     6.28206E+00    -7.85029E+00     0.00000E+00     0.00000E+00          0.00000E+00
      -1061     6.27023E+00    -7.84289E+00     0.00000E+00     0.00000E+00          0.00000E+00
      -1060     6.25842E+00    -7.83550E+00     0.00000E+00     0.00000E+00          0.00000E+00
      -1059     6.24662E+00    -7.82811E+00     0.00000E+00     0.00000E+00          0.00000E+00
      -1058     6.23482E+00    -7.82072E+00     0.00000E+00     0.00000E+00          0.00000E+00
      -1057     6.22304E+00    -7.81333E+00     0.00000E+00     0.00000E+00          0.00000E+00
      -1056     6.21127E+00    -7.80593E+00     0.00000E+00     0.00000E+00          0.00000E+00
      -1055     6.19952E+00    -7.79854E+00     0.00000E+00     0.00000E+00          0.00000E+00
      -1054     6.18777E+00    -7.79115E+00     0.00000E+00     0.00000E+00          0.00000E+00
      -1053     6.17603E+00    -7.78376E+00     0.00000E+00     0.00000E+00          0.00000E+00
      -1052     6.16431E+00    -7.77637E+00     0.00000E+00     0.00000E+00          0.00000E+00
      -1051     6.15259E+00    -7.76897E+00     0.00000E+00     0.00000E+00          0.00000E+00
      -1050     6.14089E+00    -7.76158E+00     0.00000E+00     0.00000E+00          0.00000E+00
      -1049     6.12920E+00    -7.75419E+00     0.00000E+00     0.00000E+00          0.00000E+00
      -1048     6.11752E+00    -7.74680E+00     0.00000E+00     0.00000E+00          0.00000E+00
      -1047     6.10585E+00    -7.73941E+00     0.00000E+00     0.00000E+00          0.00000E+00
      -1046     6.09419E+00    -7.73201E+00     0.00000E+00     0.00000E+00          0.00000E+00
      -1045     6.08255E+00    -7.72462E+00     0.00000E+00     0.00000E+00          0.00000E+00
      -1044     6.07091E+00    -7.71723E+00     0.00000E+00     0.00000E+00          0.00000E+00
      -1043     6.05929E+00    -7.70984E+00     0.00000E+00     0.00000E+00          0.00000E+00
      -1042     6.04767E+00    -7.70245E+00     0.00000E+00     0.00000E+00          0.00000E+00
      -1041     6.03607E+00    -7.69505E+00     0.00000E+00     0.00000E+00          0.00000E+00
      -1040     6.02448E+00    -7.68766E+00     0.00000E+00     0.00000E+00          0.00000E+00
      -1039     6.01290E+00    -7.68027E+00     0.00000E+00     0.00000E+00          0.00000E+00
      -1038     6.00133E+00    -7.67288E+00     0.00000E+00     0.00000E+00          0.00000E+00
      -1037     5.98977E+00    -7.66549E+00     0.00000E+00     0.00000E+00          0.00000E+00
      -1036     5.97823E+00    -7.65809E+00     0.00000E+00     0.00000E+00          0.00000E+00
      -1035     5.96669E+00    -7.65070E+00     0.00000E+00     0.00000E+00          0.00000E+00
      -1034     5.95517E+00    -7.64331E+00     0.00000E+00     0.00000E+00          0.00000E+00
      -1033     5.94365E+00    -7.63592E+00     0.00000E+00     0.00000E+00          0.00000E+00
      -1032     5.93215E+00    -7.62853E+00     0.00000E+00     0.00000E+00          0.00000E+00
      -1031     5.92066E+00    -7.62113E+00     0.00000E+00     0.00000E+00          0.00000E+00
      -1030     5.90918E+00    -7.61374E+00     0.00000E+00     0.00000E+00          0.00000E+00
      -1029     5.89771E+00    -7.60635E+00     0.00000E+00     0.00000E+00          0.00000E+00
      -1028     5.88625E+00    -7.59896E+00     0.00000E+00     0.00000E+00          0.00000E+00
      -1027     5.87481E+00    -7.59157E+00     0.00000E+00     0.00000E+00          0.00000E+00
      -1026     5.86337E+00    -7.58417E+00     0.00000E+00     0.00000E+00          0.00000E+00
      -1025     5.85195E+00    -7.57678E+00     0.00000E+00     0.00000E+00          0.00000E+00
      -1024     5.84054E+00    -7.56939E+00     0.00000E+00     0.00000E+00          0.00000E+00
      -1023     5.82913E+00    -7.56200E+00     0.00000E+00     0.00000E+00          0.00000E+00
      -1022     5.81774E+00    -7.55461E+00     0.00000E+00     0.00000E+00          0.00000E+00
      -1021     5.80637E+00    -7.54721E+00     0.00000E+00     0.00000E+00          0.00000E+00
      -1020     5.79500E+00    -7.53982E+00     0.00000E+00     0.00000E+00          0.00000E+00
      -1019     5.78364E+00    -7.53243E+00     0.00000E+00     0.00000E+00          0.00000E+00
      -1018     5.77229E+00    -7.52504E+00     0.00000E+00     0.00000E+00          0.00000E+00
      -1017     5.76096E+00    -7.51765E+00     0.00000E+00     0.00000E+00          0.00000E+00
      -1016     5.74964E+00    -7.51025E+00     0.00000E+00     0.00000E+00          0.00000E+00
      -1015     5.73832E+00    -7.50286E+00     0.00000E+00     0.00000E+00          0.00000E+00
      -1014     5.72702E+00    -7.49547E+00     0.00000E+00     0.00000E+00          0.00000E+00
      -1013     5.71573E+00    -7.48808E+00     0.00000E+00     0.00000E+00          0.00000E+00
      -1012     5.70445E+00    -7.48069E+00     0.00000E+00     0.00000E+00          0.00000E+00
      -1011     5.69318E+00    -7.47329E+00     0.00000E+00     0.00000E+00          0.00000E+00
      -1010     5.68193E+00    -7.46590E+00     0.00000E+00     0.00000E+00          0.00000E+00
      -1009     5.67068E+00    -7.45851E+00     0.00000E+00     0.00000E+00          0.00000E+00
      -1008     5.65945E+00    -7.45112E+00     0.00000E+00     0.00000E+00          0.00000E+00
      -1007     5.64822E+00    -7.44373E+00     0.00000E+00     0.00000E+00          0.00000E+00
      -1006     5.63701E+00    -7.43633E+00     0.00000E+00     0.00000E+00          0.00000E+00
      -1005     5.62581E+00    -7.42894E+00     0.00000E+00     0.00000E+00          0.00000E+00
      -1004     5.61462E+00    -7.42155E+00     0.00000E+00     0.00000E+00          0.00000E+00
      -1003     5.60344E+00    -7.41416E+00     0.00000E+00     0.00000E+00          0.00000E+00
      -1002     5.59227E+00    -7.40677E+00     0.00000E+00     0.00000E+00          0.00000E+00
      -1001     5.58112E+00    -7.39937E+00     0.00000E+00     0.00000E+00          0.00000E+00
      -1000     5.56997E+00    -7.39198E+00     0.00000E+00     0.00000E+00          0.00000E+00
       -999     5.55884E+00    -7.38459E+00     0.00000E+00     0.00000E+00          0.00000E+00
       -998     5.54771E+00    -7.37720E+00     0.00000E+00     0.00000E+00          0.00000E+00
       -997     5.53660E+00    -7.36981E+00     0.00000E+00     0.00000E+00          0.00000E+00
       -996     5.52550E+00    -7.36241E+00     0.00000E+00     0.00000E+00          0.00000E+00
       -995     5.51441E+00    -7.35502E+00     0.00000E+00     0.00000E+00          0.00000E+00
       -994     5.50333E+00    -7.34763E+00     0.00000E+00     0.00000E+00          0.00000E+00
       -993     5.49226E+00    -7.34024E+00     0.00000E+00     0.00000E+00          0.00000E+00
       -992     5.48121E+00    -7.33285E+00     0.00000E+00     0.00000E+00          0.00000E+00
       -991     5.47016E+00    -7.32545E+00     0.00000E+00     0.00000E+00          0.00000E+00
       -990     5.45913E+00    -7.31806E+00     0.00000E+00     0.00000E+00          0.00000E+00
       -989     5.44810E+00    -7.31067E+00     0.00000E+00     0.00000E+00          0.00000E+00
       -988     5.43709E+00    -7.30328E+00     0.00000E+00     0.00000E+00          0.00000E+00
       -987     5.42609E+00    -7.29589E+00     0.00000E+00     0.00000E+00          0.00000E+00
       -986     5.41510E+00    -7.28850E+00     0.00000E+00     0.00000E+00          0.00000E+00
       -985     5.40412E+00    -7.28110E+00     0.00000E+00     0.00000E+00          0.00000E+00
       -984     5.39316E+00    -7.27371E+00     0.00000E+00     0.00000E+00          0.00000E+00
       -983     5.38220E+00    -7.26632E+00     0.00000E+00     0.00000E+00          0.00000E+00
       -982     5.37126E+00    -7.25893E+00     0.00000E+00     0.00000E+00          0.00000E+00
       -981     5.36032E+00    -7.25153E+00     0.00000E+00     0.00000E+00          0.00000E+00
       -980     5.34940E+00    -7.24414E+00     0.00000E+00     0.00000E+00          0.00000E+00
       -979     5.33849E+00    -7.23675E+00     0.00000E+00     0.00000E+00          0.00000E+00
       -978     5.32759E+00    -7.22936E+00     0.00000E+00     0.00000E+00          0.00000E+00
       -977     5.31670E+00    -7.22197E+00     0.00000E+00     0.00000E+00          0.00000E+00
       -976     5.30582E+00    -7.21458E+00     0.00000E+00     0.00000E+00          0.00000E+00
       -975     5.29495E+00    -7.20718E+00     0.00000E+00     0.00000E+00          0.00000E+00
       -974     5.28410E+00    -7.19979E+00     0.00000E+00     0.00000E+00          0.00000E+00
       -973     5.27325E+00    -7.19240E+00     0.00000E+00     0.00000E+00          0.00000E+00
       -972     5.26242E+00    -7.18501E+00     0.00000E+00     0.00000E+00          0.00000E+00
       -971     5.25160E+00    -7.17762E+00     0.00000E+00     0.00000E+00          0.00000E+00
       -970     5.24079E+00    -7.17022E+00     0.00000E+00     0.00000E+00          0.00000E+00
       -969     5.22998E+00    -7.16283E+00     0.00000E+00     0.00000E+00          0.00000E+00
       -968     5.21920E+00    -7.15544E+00     0.00000E+00     0.00000E+00          0.00000E+00
       -967     5.20842E+00    -7.14805E+00     0.00000E+00     0.00000E+00          0.00000E+00
       -966     5.19765E+00    -7.14066E+00     0.00000E+00     0.00000E+00          0.00000E+00
       -965     5.18690E+00    -7.13326E+00     0.00000E+00     0.00000E+00          0.00000E+00
       -964     5.17615E+00    -7.12587E+00     0.00000E+00     0.00000E+00          0.00000E+00
       -963     5.16542E+00    -7.11848E+00     0.00000E+00     0.00000E+00          0.00000E+00
       -962     5.15470E+00    -7.11109E+00     0.00000E+00     0.00000E+00          0.00000E+00
       -961     5.14398E+00    -7.10370E+00     0.00000E+00     0.00000E+00          0.00000E+00
       -960     5.13328E+00    -7.09630E+00     0.00000E+00     0.00000E+00          0.00000E+00
       -959     5.12260E+00    -7.08891E+00     0.00000E+00     0.00000E+00          0.00000E+00
       -958     5.11192E+00    -7.08152E+00     0.00000E+00     0.00000E+00          0.00000E+00
       -957     5.10125E+00    -7.07413E+00     0.00000E+00     0.00000E+00          0.00000E+00
       -956     5.09060E+00    -7.06674E+00     0.00000E+00     0.00000E+00          0.00000E+00
       -955     5.07995E+00    -7.05934E+00     0.00000E+00     0.00000E+00          0.00000E+00
       -954     5.06932E+00    -7.05195E+00     0.00000E+00     0.00000E+00          0.00000E+00
       -953     5.05870E+00    -7.04456E+00     0.00000E+00     0.00000E+00          0.00000E+00
       -952     5.04809E+00    -7.03717E+00     0.00000E+00     0.00000E+00          0.00000E+00
       -951     5.03749E+00    -7.02978E+00     0.00000E+00     0.00000E+00          0.00000E+00
       -950     5.02690E+00    -7.02238E+00     0.00000E+00     0.00000E+00          0.00000E+00
       -949     5.01632E+00    -7.01499E+00     0.00000E+00     0.00000E+00          0.00000E+00
       -948     5.00575E+00    -7.00760E+00     0.00000E+00     0.00000E+00          0.00000E+00
       -947     4.99520E+00    -7.00021E+00     0.00000E+00     0.00000E+00          0.00000E+00
       -946     4.98466E+00    -6.99282E+00     0.00000E+00     0.00000E+00          0.00000E+00
       -945     4.97412E+00    -6.98542E+00     0.00000E+00     0.00000E+00          0.00000E+00
       -944     4.96360E+00    -6.97803E+00     0.00000E+00     0.00000E+00          0.00000E+00
       -943     4.95309E+00    -6.97064E+00     0.00000E+00     0.00000E+00          0.00000E+00
       -942     4.94259E+00    -6.96325E+00     0.00000E+00     0.00000E+00          0.00000E+00
       -941     4.93210E+00    -6.95586E+00     0.00000E+00     0.00000E+00          0.00000E+00
       -940     4.92163E+00    -6.94846E+00     0.00000E+00     0.00000E+00          0.00000E+00
       -939     4.91116E+00    -6.94107E+00     0.00000E+00     0.00000E+00          0.00000E+00
       -938     4.90070E+00    -6.93368E+00     0.00000E+00     0.00000E+00          0.00000E+00
       -937     4.89026E+00    -6.92629E+00     0.00000E+00     0.00000E+00          0.00000E+00
       -936     4.87983E+00    -6.91890E+00     0.00000E+00     0.00000E+00          0.00000E+00
       -935     4.86941E+00    -6.91150E+00     0.00000E+00     0.00000E+00          0.00000E+00
       -934     4.85900E+00    -6.90411E+00     0.00000E+00     0.00000E+00          0.00000E+00
       -933     4.84860E+00    -6.89672E+00     0.00000E+00     0.00000E+00          0.00000E+00
       -932     4.83821E+00    -6.88933E+00     0.00000E+00     0.00000E+00          0.00000E+00
       -931     4.82783E+00    -6.88194E+00     0.00000E+00     0.00000E+00          0.00000E+00
       -930     4.81747E+00    -6.87454E+00     0.00000E+00     0.00000E+00          0.00000E+00
       -929     4.80711E+00    -6.86715E+00     0.00000E+00     0.00000E+00          0.00000E+00
       -928     4.79677E+00    -6.85976E+00     0.00000E+00     0.00000E+00          0.00000E+00
       -927     4.78644E+00    -6.85237E+00     0.00000E+00     0.00000E+00          0.00000E+00
       -926     4.77612E+00    -6.84498E+00     0.00000E+00     0.00000E+00          0.00000E+00
       -925     4.76581E+00    -6.83758E+00     0.00000E+00     0.00000E+00          0.00000E+00
       -924     4.75551E+00    -6.83019E+00     0.00000E+00     0.00000E+00          0.00000E+00
       -923     4.74522E+00    -6.82280E+00     0.00000E+00     0.00000E+00          0.00000E+00
       -922     4.73494E+00    -6.81541E+00     0.00000E+00     0.00000E+00          0.00000E+00
       -921     4.72468E+00    -6.80802E+00     0.00000E+00     0.00000E+00          0.00000E+00
       -920     4.71442E+00    -6.80062E+00     0.00000E+00     0.00000E+00          0.00000E+00
       -919     4.70418E+00    -6.79323E+00     0.00000E+00     0.00000E+00          0.00000E+00
       -918     4.69395E+00    -6.78584E+00     0.00000E+00     0.00000E+00          0.00000E+00
       -917     4.68373E+00    -6.77845E+00     0.00000E+00     0.00000E+00          0.00000E+00
       -916     4.67352E+00    -6.77106E+00     0.00000E+00     0.00000E+00          0.00000E+00
       -915     4.66332E+00    -6.76366E+00     0.00000E+00     0.00000E+00          0.00000E+00
       -914     4.65313E+00    -6.75627E+00     0.00000E+00     0.00000E+00          0.00000E+00
       -913     4.64295E+00    -6.74888E+00     0.00000E+00     0.00000E+00          0.00000E+00
       -912     4.63279E+00    -6.74149E+00     0.00000E+00     0.00000E+00          0.00000E+00
       -911     4.62263E+00    -6.73410E+00     0.00000E+00     0.00000E+00          0.00000E+00
       -910     4.61249E+00    -6.72670E+00     0.00000E+00     0.00000E+00          0.00000E+00
       -909     4.60236E+00    -6.71931E+00     0.00000E+00     0.00000E+00          0.00000E+00
       -908     4.59224E+00    -6.71192E+00     0.00000E+00     0.00000E+00          0.00000E+00
       -907     4.58213E+00    -6.70453E+00     0.00000E+00     0.00000E+00          0.00000E+00
       -906     4.57203E+00    -6.69714E+00     0.00000E+00     0.00000E+00          0.00000E+00
       -905     4.56194E+00    -6.68974E+00     0.00000E+00     0.00000E+00          0.00000E+00
       -904     4.55187E+00    -6.68235E+00     0.00000E+00     0.00000E+00          0.00000E+00
       -903     4.54180E+00    -6.67496E+00     0.00000E+00     0.00000E+00          0.00000E+00
       -902     4.53175E+00    -6.66757E+00     0.00000E+00     0.00000E+00          0.00000E+00
       -901     4.52171E+00    -6.66018E+00     0.00000E+00     0.00000E+00          0.00000E+00
       -900     4.51168E+00    -6.65278E+00     0.00000E+00     0.00000E+00          0.00000E+00
       -899     4.50166E+00    -6.64539E+00     0.00000E+00     0.00000E+00          0.00000E+00
       -898     4.49165E+00    -6.63800E+00     0.00000E+00     0.00000E+00          0.00000E+00
       -897     4.48165E+00    -6.63061E+00     0.00000E+00     0.00000E+00          0.00000E+00
       -896     4.47166E+00    -6.62322E+00     0.00000E+00     0.00000E+00          0.00000E+00
       -895     4.46169E+00    -6.61582E+00     0.00000E+00     0.00000E+00          0.00000E+00
       -894     4.45172E+00    -6.60843E+00     0.00000E+00     0.00000E+00          0.00000E+00
       -893     4.44177E+00    -6.60104E+00     0.00000E+00     0.00000E+00          0.00000E+00
       -892     4.43182E+00    -6.59365E+00     0.00000E+00     0.00000E+00          0.00000E+00
       -891     4.42189E+00    -6.58626E+00     0.00000E+00     0.00000E+00          0.00000E+00
       -890     4.41197E+00    -6.57886E+00     0.00000E+00     0.00000E+00          0.00000E+00
       -889     4.40206E+00    -6.57147E+00     0.00000E+00     0.00000E+00          0.00000E+00
       -888     4.39217E+00    -6.56408E+00     0.00000E+00     0.00000E+00          0.00000E+00
       -887     4.38228E+00    -6.55669E+00     0.00000E+00     0.00000E+00          0.00000E+00
[...]
       2372   0.59300E+02       9.98187E+02       0.00000E+00      -6.38757E+01       0.00000E+00       1.56681E+04       0.00000E+00       0.00000E+00       1.23547E+03       0.00000E+00      -1.34775E+04       0.00000E+00       9.95499E+03      -1.68079E+01       0.00000E+00      -1.38960E+03       0.00000E+00      -3.06493E+02       0.00000E+00       0.00000E+00       1.55439E+04       0.00000E+00       1.03633E+06       0.00000E+00       8.74249E+04      -1.39285E+04       0.00000E+00      -5.84667E+01       0.00000E+00       1.04656E+06       0.00000E+00       0.00000E+00       6.28678E+03       0.00000E+00       1.23638E+05       0.00000E+00      -1.64430E+06
       2373   0.59325E+02       2.41877E+03       0.00000E+00      -6.28600E+01       0.00000E+00       1.31501E+04       0.00000E+00       0.00000E+00       2.65039E+03       0.00000E+00      -1.09785E+04       0.00000E+00       9.79240E+03      -1.65181E+01       0.00000E+00      -1.48543E+03       0.00000E+00      -2.98216E+02       0.00000E+00       0.00000E+00       1.76612E+04       0.00000E+00       1.02006E+06       0.00000E+00       8.58608E+04      -1.60785E+04       0.00000E+00      -5.45035E+01       0.00000E+00       1.03035E+06       0.00000E+00       0.00000E+00       6.18292E+03       0.00000E+00       1.21561E+05       0.00000E+00      -1.19593E+06
       2374   0.59350E+02       3.85227E+03       0.00000E+00      -6.10994E+01       0.00000E+00       1.04503E+04       0.00000E+00       0.00000E+00       4.07829E+03       0.00000E+00      -8.35456E+03       0.00000E+00       9.51406E+03      -1.60360E+01       0.00000E+00      -1.63920E+03       0.00000E+00      -2.86651E+02       0.00000E+00       0.00000E+00       1.95639E+04       0.00000E+00       9.94181E+05       0.00000E+00       8.32905E+04      -1.80220E+04       0.00000E+00      -5.01517E+01       0.00000E+00       1.00355E+06       0.00000E+00       0.00000E+00       6.00605E+03       0.00000E+00       1.18052E+05       0.00000E+00      -6.93808E+05
       2375   0.59375E+02       5.29138E+03       0.00000E+00      -5.86152E+01       0.00000E+00       7.62407E+03       0.00000E+00       0.00000E+00       5.50643E+03       0.00000E+00      -5.59785E+03       0.00000E+00       9.12324E+03      -1.53675E+01       0.00000E+00      -1.84527E+03       0.00000E+00      -2.71921E+02       0.00000E+00       0.00000E+00       2.12510E+04       0.00000E+00       9.59546E+05       0.00000E+00       7.97448E+04      -1.97772E+04       0.00000E+00      -4.54452E+01       0.00000E+00       9.68729E+05       0.00000E+00       0.00000E+00       5.75832E+03       0.00000E+00       1.13151E+05       0.00000E+00      -1.40578E+05
       2376   0.59400E+02       6.73323E+03       0.00000E+00      -5.54366E+01       0.00000E+00       4.63957E+03       0.00000E+00       0.00000E+00       6.93749E+03       0.00000E+00      -2.73835E+03       0.00000E+00       8.62461E+03      -1.45203E+01       0.00000E+00      -2.10736E+03       0.00000E+00      -2.54193E+02       0.00000E+00       0.00000E+00       2.27213E+04       0.00000E+00       9.16084E+05       0.00000E+00       7.52644E+04      -2.13235E+04       0.00000E+00      -4.04357E+01       0.00000E+00       9.24140E+05       0.00000E+00       0.00000E+00       5.44263E+03       0.00000E+00       1.06916E+05       0.00000E+00       4.60718E+05
       2377   0.59425E+02       8.17067E+03       0.00000E+00      -5.16016E+01       0.00000E+00       1.55586E+03       0.00000E+00       0.00000E+00       8.35878E+03       0.00000E+00       2.29487E+02       0.00000E+00       8.02407E+03      -1.35044E+01       0.00000E+00      -2.41789E+03       0.00000E+00      -2.33659E+02       0.00000E+00       0.00000E+00       2.39794E+04       0.00000E+00       8.64898E+05       0.00000E+00       6.99023E+04      -2.26845E+04       0.00000E+00      -3.51604E+01       0.00000E+00       8.72636E+05       0.00000E+00       0.00000E+00       5.06278E+03       0.00000E+00       9.94212E+04       0.00000E+00       1.10458E+06
       2378   0.59450E+02       9.59989E+03       0.00000E+00      -4.71553E+01       0.00000E+00      -1.65461E+03       0.00000E+00       0.00000E+00       9.77259E+03       0.00000E+00       3.27125E+03       0.00000E+00       7.32872E+03      -1.23316E+01       0.00000E+00      -2.77952E+03       0.00000E+00      -2.10550E+02       0.00000E+00       0.00000E+00       2.50295E+04       0.00000E+00       8.06066E+05       0.00000E+00       6.37206E+04      -2.38417E+04       0.00000E+00      -2.96734E+01       0.00000E+00       8.12510E+05       0.00000E+00       0.00000E+00       4.62322E+03       0.00000E+00       9.07548E+04       0.00000E+00       1.78826E+06
       2379   0.59475E+02       1.10137E+04       0.00000E+00      -4.21509E+01       0.00000E+00      -4.92878E+03       0.00000E+00       0.00000E+00       1.11659E+04       0.00000E+00       6.38965E+03       0.00000E+00       6.54681E+03      -1.10158E+01       0.00000E+00      -3.18327E+03       0.00000E+00      -1.85116E+02       0.00000E+00       0.00000E+00       2.58779E+04       0.00000E+00       7.40816E+05       0.00000E+00       5.67922E+04      -2.48234E+04       0.00000E+00      -2.40138E+01       0.00000E+00       7.46797E+05       0.00000E+00       0.00000E+00       4.12921E+03       0.00000E+00       8.10189E+04       0.00000E+00       2.50508E+06
       2380   0.59500E+02       1.24083E+04       0.00000E+00      -3.66474E+01       0.00000E+00      -8.29056E+03       0.00000E+00       0.00000E+00       1.25411E+04       0.00000E+00       9.54795E+03       0.00000E+00       5.68758E+03      -9.57240E+00       0.00000E+00      -3.63029E+03       0.00000E+00      -1.57641E+02       0.00000E+00       0.00000E+00       2.65357E+04       0.00000E+00       6.69423E+05       0.00000E+00       4.91976E+04      -2.56158E+04       0.00000E+00      -1.82367E+01       0.00000E+00       6.73983E+05       0.00000E+00       0.00000E+00       3.58653E+03       0.00000E+00       7.03282E+04       0.00000E+00       3.25102E+06
       2381   0.59525E+02       1.37765E+04       0.00000E+00      -3.07103E+01       0.00000E+00      -1.16775E+04       0.00000E+00       0.00000E+00       1.38854E+04       0.00000E+00       1.27456E+04       0.00000E+00       4.76119E+03      -8.01827E+00       0.00000E+00      -4.11035E+03       0.00000E+00      -1.28425E+02       0.00000E+00       0.00000E+00       2.70122E+04       0.00000E+00       5.93220E+05       0.00000E+00       4.10262E+04      -2.62483E+04       0.00000E+00      -1.23815E+01       0.00000E+00       5.97228E+05       0.00000E+00       0.00000E+00       3.00166E+03       0.00000E+00       5.88088E+04       0.00000E+00       4.01866E+06
       2382   0.59550E+02       1.51147E+04       0.00000E+00      -2.44097E+01       0.00000E+00      -1.51083E+04       0.00000E+00       0.00000E+00       1.52010E+04       0.00000E+00       1.59441E+04       0.00000E+00       3.77861E+03      -6.37170E+00       0.00000E+00      -4.62357E+03       0.00000E+00      -9.77932E+01       0.00000E+00       0.00000E+00       2.73216E+04       0.00000E+00       5.12655E+05       0.00000E+00       3.23730E+04      -2.67127E+04       0.00000E+00      -6.50286E+00       0.00000E+00       5.15086E+05       0.00000E+00       0.00000E+00       2.38145E+03       0.00000E+00       4.65964E+04       0.00000E+00       4.80313E+06
       2383   0.59575E+02       1.64151E+04       0.00000E+00      -1.78207E+01       0.00000E+00      -1.85172E+04       0.00000E+00       0.00000E+00       1.64754E+04       0.00000E+00       1.91427E+04       0.00000E+00       2.75145E+03      -4.65201E+00       0.00000E+00      -5.15870E+03       0.00000E+00      -6.60797E+01       0.00000E+00       0.00000E+00       2.74777E+04       0.00000E+00       4.29034E+05       0.00000E+00       2.33400E+04      -2.70409E+04       0.00000E+00      -6.39308E-01       0.00000E+00       4.30926E+05       0.00000E+00       0.00000E+00       1.73329E+03       0.00000E+00       3.38350E+04       0.00000E+00       5.59620E+06
       2384   0.59600E+02       1.76750E+04       0.00000E+00      -1.10210E+01       0.00000E+00      -2.19221E+04       0.00000E+00       0.00000E+00       1.77109E+04       0.00000E+00       2.23002E+04       0.00000E+00       1.69186E+03      -2.87939E+00       0.00000E+00      -5.71504E+03       0.00000E+00      -3.36367E+01       0.00000E+00       0.00000E+00       2.74961E+04       0.00000E+00       3.42972E+05       0.00000E+00       1.40321E+04      -2.72273E+04       0.00000E+00       5.15620E+00       0.00000E+00       3.43299E+05       0.00000E+00       0.00000E+00       1.06477E+03       0.00000E+00       2.06751E+04       0.00000E+00       6.39260E+06
       2385   0.59625E+02       1.88865E+04       0.00000E+00      -4.09157E+00       0.00000E+00      -2.52603E+04       0.00000E+00       0.00000E+00       1.88951E+04       0.00000E+00       2.54140E+04       0.00000E+00       6.12348E+02      -1.07465E+00       0.00000E+00      -6.28063E+03       0.00000E+00      -8.18613E-01       0.00000E+00       0.00000E+00       2.73926E+04       0.00000E+00       2.55841E+05       0.00000E+00       4.55914E+03      -2.73041E+04       0.00000E+00       1.08472E+01       0.00000E+00       2.55561E+05       0.00000E+00       0.00000E+00       3.83843E+02       0.00000E+00       7.27166E+03       0.00000E+00       7.18446E+06
       2386   0.59650E+02       2.00471E+04       0.00000E+00       2.88580E+00       0.00000E+00      -2.85453E+04       0.00000E+00       0.00000E+00       2.00309E+04       0.00000E+00       2.84433E+04       0.00000E+00      -4.74308E+02       7.41025E-01       0.00000E+00      -6.85424E+03       0.00000E+00       3.20102E+01       0.00000E+00       0.00000E+00       2.71855E+04       0.00000E+00       1.68291E+05       0.00000E+00      -4.96886E+03      -2.72691E+04       0.00000E+00       1.63837E+01       0.00000E+00       1.66434E+05       0.00000E+00       0.00000E+00      -3.01511E+02       0.00000E+00      -6.21723E+03       0.00000E+00       7.96656E+06
       2387   0.59675E+02       2.11498E+04       0.00000E+00       9.82812E+00       0.00000E+00      -3.17120E+04       0.00000E+00       0.00000E+00       2.11061E+04       0.00000E+00       3.13874E+04       0.00000E+00      -1.55528E+03       2.54631E+00       0.00000E+00      -7.42369E+03       0.00000E+00       6.44914E+01       0.00000E+00       0.00000E+00       2.68913E+04       0.00000E+00       8.15853E+04       0.00000E+00      -1.44396E+04      -2.71557E+04       0.00000E+00       2.17323E+01       0.00000E+00       7.91772E+04       0.00000E+00       0.00000E+00      -9.83146E+02       0.00000E+00      -1.96327E+04       0.00000E+00       8.72866E+06
       2388   0.59700E+02       2.21922E+04       0.00000E+00       1.66534E+01       0.00000E+00      -3.47785E+04       0.00000E+00       0.00000E+00       2.21239E+04       0.00000E+00       3.42033E+04       0.00000E+00      -2.61777E+03       4.32001E+00       0.00000E+00      -7.98747E+03       0.00000E+00       9.62643E+01       0.00000E+00       0.00000E+00       2.65293E+04       0.00000E+00      -3.49525E+03       0.00000E+00      -2.37429E+04      -2.69602E+04       0.00000E+00       2.68466E+01       0.00000E+00      -7.45472E+03       0.00000E+00       0.00000E+00      -1.65308E+03       0.00000E+00      -3.28165E+04       0.00000E+00       9.46777E+06
       2389   0.59725E+02       2.31668E+04       0.00000E+00       2.32804E+01       0.00000E+00      -3.76786E+04       0.00000E+00       0.00000E+00       2.30726E+04       0.00000E+00       3.68919E+04       0.00000E+00      -3.64925E+03       6.04129E+00       0.00000E+00      -8.53341E+03       0.00000E+00       1.26982E+02       0.00000E+00       0.00000E+00       2.61155E+04       0.00000E+00      -8.57845E+04       0.00000E+00      -3.27692E+04      -2.67209E+04       0.00000E+00       3.16974E+01       0.00000E+00      -9.02193E+04       0.00000E+00       0.00000E+00      -2.30334E+03       0.00000E+00      -4.56133E+04       0.00000E+00       1.01742E+07
       2390   0.59750E+02       2.40727E+04       0.00000E+00       2.96310E+01       0.00000E+00      -4.04301E+04       0.00000E+00       0.00000E+00       2.39558E+04       0.00000E+00       3.94121E+04       0.00000E+00      -4.63751E+03       7.68993E+00       0.00000E+00      -9.06021E+03       0.00000E+00       1.56304E+02       0.00000E+00       0.00000E+00       2.56708E+04       0.00000E+00      -1.64605E+05       0.00000E+00      -4.14135E+04      -2.64294E+04       0.00000E+00       3.62427E+01       0.00000E+00      -1.70394E+05       0.00000E+00       0.00000E+00      -2.92634E+03       0.00000E+00      -5.78724E+04       0.00000E+00       1.08440E+07
       2391   0.59775E+02       2.49035E+04       0.00000E+00       3.56295E+01       0.00000E+00      -4.29760E+04       0.00000E+00       0.00000E+00       2.47629E+04       0.00000E+00       4.17650E+04       0.00000E+00      -5.57088E+03       9.24658E+00       0.00000E+00      -9.55623E+03       0.00000E+00       1.83910E+02       0.00000E+00       0.00000E+00       2.52066E+04       0.00000E+00      -2.38682E+05       0.00000E+00      -4.95738E+04      -2.61253E+04       0.00000E+00       4.04585E+01       0.00000E+00      -2.44950E+05       0.00000E+00       0.00000E+00      -3.51464E+03       0.00000E+00      -6.94491E+04       0.00000E+00       1.14692E+07
       2392   0.59800E+02       2.56576E+04       0.00000E+00       4.12052E+01       0.00000E+00      -4.53299E+04       0.00000E+00       0.00000E+00       2.54974E+04       0.00000E+00       4.39117E+04       0.00000E+00      -6.43834E+03       1.06930E+01       0.00000E+00      -1.00206E+04       0.00000E+00       2.09494E+02       0.00000E+00       0.00000E+00       2.47450E+04       0.00000E+00      -3.07555E+05       0.00000E+00      -5.71555E+04      -2.57988E+04       0.00000E+00       4.43074E+01       0.00000E+00      -3.15146E+05       0.00000E+00       0.00000E+00      -4.06139E+03       0.00000E+00      -8.02072E+04       0.00000E+00       1.20464E+07
       2393   0.59825E+02       2.63301E+04       0.00000E+00       4.62917E+01       0.00000E+00      -4.74364E+04       0.00000E+00       0.00000E+00       2.61495E+04       0.00000E+00       4.58589E+04       0.00000E+00      -7.22962E+03       1.20121E+01       0.00000E+00      -1.04423E+04       0.00000E+00       2.32776E+02       0.00000E+00       0.00000E+00       2.42976E+04       0.00000E+00      -3.70189E+05       0.00000E+00      -6.40688E+04      -2.54862E+04       0.00000E+00       4.77711E+01       0.00000E+00      -3.78020E+05       0.00000E+00       0.00000E+00      -4.56006E+03       0.00000E+00      -9.00198E+04       0.00000E+00       1.25672E+07
       2394   0.59850E+02       2.69201E+04       0.00000E+00       5.08290E+01       0.00000E+00      -4.93158E+04       0.00000E+00       0.00000E+00       2.67234E+04       0.00000E+00       4.75691E+04       0.00000E+00      -7.93539E+03       1.31884E+01       0.00000E+00      -1.08215E+04       0.00000E+00       2.53499E+02       0.00000E+00       0.00000E+00       2.38814E+04       0.00000E+00      -4.26148E+05       0.00000E+00      -7.02338E+04      -2.51793E+04       0.00000E+00       5.08178E+01       0.00000E+00      -4.35077E+05       0.00000E+00       0.00000E+00      -5.00484E+03       0.00000E+00      -9.87712E+04       0.00000E+00       1.30303E+07
       2395   0.59875E+02       2.74221E+04       0.00000E+00       5.47632E+01       0.00000E+00      -5.09160E+04       0.00000E+00       0.00000E+00       2.72099E+04       0.00000E+00       4.90476E+04       0.00000E+00      -8.54731E+03       1.42082E+01       0.00000E+00      -1.11483E+04       0.00000E+00       2.71436E+02       0.00000E+00       0.00000E+00       2.35046E+04       0.00000E+00      -4.74383E+05       0.00000E+00      -7.55773E+04      -2.49077E+04       0.00000E+00       5.34348E+01       0.00000E+00      -4.83443E+05       0.00000E+00       0.00000E+00      -5.39042E+03       0.00000E+00      -1.06358E+05       0.00000E+00       1.34278E+07
       2396   0.59900E+02       2.78374E+04       0.00000E+00       5.80477E+01       0.00000E+00      -5.22607E+04       0.00000E+00       0.00000E+00       2.76141E+04       0.00000E+00       5.02639E+04       0.00000E+00      -9.05814E+03       1.50594E+01       0.00000E+00      -1.14237E+04       0.00000E+00       2.86387E+02       0.00000E+00       0.00000E+00       2.31817E+04       0.00000E+00      -5.14840E+05       0.00000E+00      -8.00377E+04      -2.46630E+04       0.00000E+00       5.55967E+01       0.00000E+00      -5.24807E+05       0.00000E+00       0.00000E+00      -5.71233E+03       0.00000E+00      -1.12692E+05       0.00000E+00       1.37595E+07
       2397   0.59925E+02       2.81608E+04       0.00000E+00       6.06435E+01       0.00000E+00      -5.33016E+04       0.00000E+00       0.00000E+00       2.79265E+04       0.00000E+00       5.12310E+04       0.00000E+00      -9.46185E+03       1.57320E+01       0.00000E+00      -1.16392E+04       0.00000E+00       2.98191E+02       0.00000E+00       0.00000E+00       2.29212E+04       0.00000E+00      -5.46564E+05       0.00000E+00      -8.35618E+04      -2.44731E+04       0.00000E+00       5.72969E+01       0.00000E+00      -5.56464E+05       0.00000E+00       0.00000E+00      -5.96669E+03       0.00000E+00      -1.17697E+05       0.00000E+00       1.40198E+07
       2398   0.59950E+02       2.83940E+04       0.00000E+00       6.25200E+01       0.00000E+00      -5.40672E+04       0.00000E+00       0.00000E+00       2.81536E+04       0.00000E+00       5.19177E+04       0.00000E+00      -9.75367E+03       1.62182E+01       0.00000E+00      -1.17974E+04       0.00000E+00       3.06716E+02       0.00000E+00       0.00000E+00       2.27302E+04       0.00000E+00      -5.69644E+05       0.00000E+00      -8.61093E+04      -2.43234E+04       0.00000E+00       5.85159E+01       0.00000E+00      -5.80321E+05       0.00000E+00       0.00000E+00      -6.15058E+03       0.00000E+00      -1.21315E+05       0.00000E+00       1.42082E+07
       2399   0.59975E+02       2.85334E+04       0.00000E+00       6.36548E+01       0.00000E+00      -5.45144E+04       0.00000E+00       0.00000E+00       2.82878E+04       0.00000E+00       5.23404E+04       0.00000E+00      -9.93015E+03       1.65122E+01       0.00000E+00      -1.18909E+04       0.00000E+00       3.11869E+02       0.00000E+00       0.00000E+00       2.26126E+04       0.00000E+00      -5.83482E+05       0.00000E+00      -8.76496E+04      -2.42408E+04       0.00000E+00       5.92539E+01       0.00000E+00      -5.93814E+05       0.00000E+00       0.00000E+00      -6.26176E+03       0.00000E+00      -1.23503E+05       0.00000E+00       1.43213E+07
       2400   0.60000E+02       2.85809E+04       0.00000E+00       6.40347E+01       0.00000E+00      -5.46756E+04       0.00000E+00       0.00000E+00       2.83349E+04       0.00000E+00       5.24749E+04       0.00000E+00      -9.98921E+03       1.66106E+01       0.00000E+00      -1.19241E+04       0.00000E+00       3.13593E+02       0.00000E+00       0.00000E+00       2.25724E+04       0.00000E+00      -5.88240E+05       0.00000E+00      -8.81652E+04      -2.42048E+04       0.00000E+00       5.94977E+01       0.00000E+00      -5.99108E+05       0.00000E+00       0.00000E+00      -6.29899E+03       0.00000E+00      -1.24235E+05       0.00000E+00       1.43589E+07

This summary file was closed on 30-Oct-2022 at 18:26:28.

