
This summary information was generated by ElastoDyn on 29-Oct-2022 at 21:01:29.


Turbine features:

            Upwind, 3-bladed rotor with rigid hub.
            The model has 20 of 24 DOFs active (enabled) at start-up.
 Enabled    Platform horizontal surge translation DOF 
 Enabled    Platform horizontal sway translation DOF 
 Enabled    Platform vertical heave translation DOF 
 Enabled    Platform roll tilt rotation DOF 
 Enabled    Platform pitch tilt rotation DOF 
 Enabled    Platform yaw rotation DOF 
 Enabled    1st tower fore-aft bending mode DOF 
 Enabled    1st tower side-to-side bending mode DOF 
 Enabled    2nd tower fore-aft bending mode DOF 
 Enabled    2nd tower side-to-side bending mode DOF 
 Disabled   Nacelle yaw DOF 
 Disabled   Rotor-furl DOF 
 Enabled    Variable speed generator DOF 
 Disabled   Drivetrain rotational-flexibility DOF 
 Disabled   Tail-furl DOF 
 Enabled    1st flapwise bending-mode DOF of blade 1 
 Enabled    1st edgewise bending-mode DOF of blade 1 
 Enabled    2nd flapwise bending-mode DOF of blade 1 
 Enabled    1st flapwise bending-mode DOF of blade 2 
 Enabled    1st edgewise bending-mode DOF of blade 2 
 Enabled    2nd flapwise bending-mode DOF of blade 2 
 Enabled    1st flapwise bending-mode DOF of blade 3 
 Enabled    1st edgewise bending-mode DOF of blade 3 
 Enabled    2nd flapwise bending-mode DOF of blade 3 


Time steps:

    Structural            (s)        0.02500000


Some calculated parameters:

    Hub-Height            (m)           150.000
    Flexible Tower Length (m)           129.386
    Flexible Blade Length (m)           123.530


Rotor mass properties:

    Rotor Mass            (kg)       329752.188
    Rotor Inertia         (kg-m^2)491239296.000
                                        Blade 1      Blade 2      Blade 3
                                        -------      -------      -------
    Mass                  (kg)        86797.391    86797.391    86797.391
    Second Mass Moment    (kg-m^2)142769424.000142769424.000142769424.000
    First Mass Moment     (kg-m)    2529421.000  2529421.000  2529421.000
    Center of Mass        (m)            29.142       29.142       29.142


Additional mass properties:

    Tower-top Mass        (kg)      1004927.188
    Tower Mass            (kg)      1466499.500
    Platform Mass         (kg)     17838000.000
    Mass Incl. Platform   (kg)     20309426.000


Interpolated tower properties:

Node  TwFract   HNodes  DHNodes  TMassDen    FAStiff    SSStiff
 (-)      (-)      (m)      (m)    (kg/m)     (Nm^2)     (Nm^2)
   1    0.025    3.235    6.469 22419.107  6.600E+12  6.600E+12
   2    0.075    9.704    6.469 21244.479  6.260E+12  6.260E+12
   3    0.125   16.173    6.469 20066.664  5.919E+12  5.919E+12
   4    0.175   22.643    6.469 18880.320  5.574E+12  5.574E+12
   5    0.225   29.112    6.469 17693.189  5.228E+12  5.228E+12
   6    0.275   35.581    6.469 16488.914  4.877E+12  4.877E+12
   7    0.325   42.050    6.469 15284.637  4.525E+12  4.525E+12
   8    0.375   48.520    6.469 14066.746  4.168E+12  4.168E+12
   9    0.425   54.989    6.469 12845.780  3.810E+12  3.810E+12
  10    0.475   61.458    6.469 11627.740  3.452E+12  3.452E+12
  11    0.525   67.928    6.469 10411.749  3.094E+12  3.094E+12
  12    0.575   74.397    6.469  9212.414  2.740E+12  2.740E+12
  13    0.625   80.866    6.469  8042.733  2.394E+12  2.394E+12
  14    0.675   87.336    6.469  6886.319  2.052E+12  2.052E+12
  15    0.725   93.805    6.469  5817.462  1.735E+12  1.735E+12
  16    0.775  100.274    6.469  4748.605  1.417E+12  1.417E+12
  17    0.825  106.743    6.469  3814.420  1.139E+12  1.139E+12
  18    0.875  113.213    6.469  2894.615  8.650E+11  8.650E+11
  19    0.925  119.682    6.469  2322.534  6.435E+11  6.435E+11
  20    0.975  126.151    6.469  1917.532  4.472E+11  4.472E+11


Interpolated blade 1 properties:

Node  BlFract   RNodes  DRNodes PitchAxis  StrcTwst  BMassDen    FlpStff    EdgStff
 (-)      (-)      (m)      (m)       (-)     (deg)    (kg/m)     (Nm^2)     (Nm^2)
   1    0.010    5.205    2.471     0.497    15.591  3626.670  1.458E+11  1.452E+11
   2    0.030    7.676    2.471     0.482    15.505  3225.203  1.310E+11  1.308E+11
   3    0.050   10.146    2.471     0.464    15.203  2802.386  1.110E+11  1.141E+11
   4    0.070   12.617    2.471     0.446    14.652  2369.933  8.755E+10  9.490E+10
   5    0.090   15.088    2.471     0.427    13.905  2080.490  6.734E+10  8.040E+10
   6    0.110   17.558    2.471     0.409    13.017  1870.078  5.149E+10  7.066E+10
   7    0.130   20.029    2.471     0.392    12.042  1540.115  4.020E+10  6.091E+10
   8    0.150   22.499    2.471     0.376    11.036  1263.977  3.343E+10  5.330E+10
   9    0.170   24.970    2.471     0.361    10.052  1037.237  2.974E+10  4.646E+10
  10    0.190   27.441    2.471     0.348     9.140   869.451  2.674E+10  4.090E+10
  11    0.210   29.911    2.471     0.337     8.343   756.064  2.368E+10  3.687E+10
  12    0.230   32.382    2.471     0.329     7.660   684.109  2.066E+10  3.396E+10
  13    0.250   34.853    2.471     0.323     7.031   637.746  1.810E+10  3.175E+10
  14    0.270   37.323    2.471     0.318     6.410   606.683  1.596E+10  2.994E+10
  15    0.290   39.794    2.471     0.314     5.811   589.828  1.464E+10  2.836E+10
  16    0.310   42.264    2.471     0.311     5.242   583.098  1.395E+10  2.689E+10
  17    0.330   44.735    2.471     0.308     4.711   577.442  1.319E+10  2.536E+10
  18    0.350   47.206    2.471     0.306     4.229   569.910  1.190E+10  2.385E+10
  19    0.370   49.676    2.471     0.304     3.795   559.998  1.043E+10  2.247E+10
  20    0.390   52.147    2.471     0.302     3.405   549.861  9.346E+09  2.129E+10
  21    0.410   54.617    2.471     0.299     3.046   540.073  8.626E+09  2.021E+10
  22    0.430   57.088    2.471     0.296     2.711   529.834  8.045E+09  1.919E+10
  23    0.450   59.559    2.471     0.294     2.397   518.484  7.386E+09  1.815E+10
  24    0.470   62.029    2.471     0.292     2.103   505.987  6.506E+09  1.714E+10
  25    0.490   64.500    2.471     0.290     1.826   493.384  5.628E+09  1.616E+10
  26    0.510   66.970    2.471     0.289     1.561   481.617  4.932E+09  1.523E+10
  27    0.530   69.441    2.471     0.288     1.310   470.788  4.418E+09  1.436E+10
  28    0.550   71.911    2.471     0.288     1.076   459.764  3.964E+09  1.349E+10
  29    0.570   74.382    2.471     0.288     0.859   435.317  3.462E+09  1.153E+10
  30    0.590   76.853    2.471     0.288     0.655   410.150  3.008E+09  9.644E+09
  31    0.610   79.323    2.471     0.289     0.459   383.765  2.639E+09  7.804E+09
  32    0.630   81.794    2.471     0.291     0.265   356.559  2.339E+09  6.039E+09
  33    0.650   84.264    2.471     0.293     0.070   330.312  2.067E+09  4.514E+09
  34    0.670   86.735    2.471     0.295    -0.137   310.764  1.797E+09  3.666E+09
  35    0.690   89.206    2.471     0.297    -0.363   291.114  1.532E+09  2.988E+09
  36    0.710   91.676    2.471     0.300    -0.623   270.928  1.279E+09  2.505E+09
  37    0.730   94.147    2.471     0.303    -0.926   248.091  1.045E+09  2.140E+09
  38    0.750   96.617    2.471     0.306    -1.240   223.141  8.453E+08  1.798E+09
  39    0.770   99.088    2.471     0.309    -1.542   196.611  6.808E+08  1.443E+09
  40    0.790  101.559    2.471     0.312    -1.809   170.299  5.411E+08  1.110E+09
  41    0.810  104.029    2.471     0.315    -2.024   143.204  4.203E+08  8.537E+08
  42    0.830  106.500    2.471     0.319    -2.138   120.192  3.224E+08  6.772E+08
  43    0.850  108.970    2.471     0.323    -2.172   100.449  2.475E+08  5.345E+08
  44    0.870  111.441    2.471     0.328    -2.163    83.269  1.870E+08  4.160E+08
  45    0.890  113.912    2.471     0.333    -2.123    69.226  1.365E+08  3.244E+08
  46    0.910  116.382    2.471     0.338    -2.053    57.802  9.503E+07  2.518E+08
  47    0.930  118.853    2.471     0.344    -1.949    48.065  6.210E+07  1.893E+08
  48    0.950  121.323    2.471     0.350    -1.802    37.553  3.724E+07  1.320E+08
  49    0.970  123.794    2.471     0.357    -1.610    28.877  1.977E+07  8.562E+07
  50    0.990  126.265    2.471     0.364    -1.373    16.215  6.449E+06  3.376E+07


Interpolated blade 2 properties:

Node  BlFract   RNodes  DRNodes PitchAxis  StrcTwst  BMassDen    FlpStff    EdgStff
 (-)      (-)      (m)      (m)       (-)     (deg)    (kg/m)     (Nm^2)     (Nm^2)
   1    0.010    5.205    2.471     0.497    15.591  3626.670  1.458E+11  1.452E+11
   2    0.030    7.676    2.471     0.482    15.505  3225.203  1.310E+11  1.308E+11
   3    0.050   10.146    2.471     0.464    15.203  2802.386  1.110E+11  1.141E+11
   4    0.070   12.617    2.471     0.446    14.652  2369.933  8.755E+10  9.490E+10
   5    0.090   15.088    2.471     0.427    13.905  2080.490  6.734E+10  8.040E+10
   6    0.110   17.558    2.471     0.409    13.017  1870.078  5.149E+10  7.066E+10
   7    0.130   20.029    2.471     0.392    12.042  1540.115  4.020E+10  6.091E+10
   8    0.150   22.499    2.471     0.376    11.036  1263.977  3.343E+10  5.330E+10
   9    0.170   24.970    2.471     0.361    10.052  1037.237  2.974E+10  4.646E+10
  10    0.190   27.441    2.471     0.348     9.140   869.451  2.674E+10  4.090E+10
  11    0.210   29.911    2.471     0.337     8.343   756.064  2.368E+10  3.687E+10
  12    0.230   32.382    2.471     0.329     7.660   684.109  2.066E+10  3.396E+10
  13    0.250   34.853    2.471     0.323     7.031   637.746  1.810E+10  3.175E+10
  14    0.270   37.323    2.471     0.318     6.410   606.683  1.596E+10  2.994E+10
  15    0.290   39.794    2.471     0.314     5.811   589.828  1.464E+10  2.836E+10
  16    0.310   42.264    2.471     0.311     5.242   583.098  1.395E+10  2.689E+10
  17    0.330   44.735    2.471     0.308     4.711   577.442  1.319E+10  2.536E+10
  18    0.350   47.206    2.471     0.306     4.229   569.910  1.190E+10  2.385E+10
  19    0.370   49.676    2.471     0.304     3.795   559.998  1.043E+10  2.247E+10
  20    0.390   52.147    2.471     0.302     3.405   549.861  9.346E+09  2.129E+10
  21    0.410   54.617    2.471     0.299     3.046   540.073  8.626E+09  2.021E+10
  22    0.430   57.088    2.471     0.296     2.711   529.834  8.045E+09  1.919E+10
  23    0.450   59.559    2.471     0.294     2.397   518.484  7.386E+09  1.815E+10
  24    0.470   62.029    2.471     0.292     2.103   505.987  6.506E+09  1.714E+10
  25    0.490   64.500    2.471     0.290     1.826   493.384  5.628E+09  1.616E+10
  26    0.510   66.970    2.471     0.289     1.561   481.617  4.932E+09  1.523E+10
  27    0.530   69.441    2.471     0.288     1.310   470.788  4.418E+09  1.436E+10
  28    0.550   71.911    2.471     0.288     1.076   459.764  3.964E+09  1.349E+10
  29    0.570   74.382    2.471     0.288     0.859   435.317  3.462E+09  1.153E+10
  30    0.590   76.853    2.471     0.288     0.655   410.150  3.008E+09  9.644E+09
  31    0.610   79.323    2.471     0.289     0.459   383.765  2.639E+09  7.804E+09
  32    0.630   81.794    2.471     0.291     0.265   356.559  2.339E+09  6.039E+09
  33    0.650   84.264    2.471     0.293     0.070   330.312  2.067E+09  4.514E+09
  34    0.670   86.735    2.471     0.295    -0.137   310.764  1.797E+09  3.666E+09
  35    0.690   89.206    2.471     0.297    -0.363   291.114  1.532E+09  2.988E+09
  36    0.710   91.676    2.471     0.300    -0.623   270.928  1.279E+09  2.505E+09
  37    0.730   94.147    2.471     0.303    -0.926   248.091  1.045E+09  2.140E+09
  38    0.750   96.617    2.471     0.306    -1.240   223.141  8.453E+08  1.798E+09
  39    0.770   99.088    2.471     0.309    -1.542   196.611  6.808E+08  1.443E+09
  40    0.790  101.559    2.471     0.312    -1.809   170.299  5.411E+08  1.110E+09
  41    0.810  104.029    2.471     0.315    -2.024   143.204  4.203E+08  8.537E+08
  42    0.830  106.500    2.471     0.319    -2.138   120.192  3.224E+08  6.772E+08
  43    0.850  108.970    2.471     0.323    -2.172   100.449  2.475E+08  5.345E+08
  44    0.870  111.441    2.471     0.328    -2.163    83.269  1.870E+08  4.160E+08
  45    0.890  113.912    2.471     0.333    -2.123    69.226  1.365E+08  3.244E+08
  46    0.910  116.382    2.471     0.338    -2.053    57.802  9.503E+07  2.518E+08
  47    0.930  118.853    2.471     0.344    -1.949    48.065  6.210E+07  1.893E+08
  48    0.950  121.323    2.471     0.350    -1.802    37.553  3.724E+07  1.320E+08
  49    0.970  123.794    2.471     0.357    -1.610    28.877  1.977E+07  8.562E+07
  50    0.990  126.265    2.471     0.364    -1.373    16.215  6.449E+06  3.376E+07


Interpolated blade 3 properties:

Node  BlFract   RNodes  DRNodes PitchAxis  StrcTwst  BMassDen    FlpStff    EdgStff
 (-)      (-)      (m)      (m)       (-)     (deg)    (kg/m)     (Nm^2)     (Nm^2)
   1    0.010    5.205    2.471     0.497    15.591  3626.670  1.458E+11  1.452E+11
   2    0.030    7.676    2.471     0.482    15.505  3225.203  1.310E+11  1.308E+11
   3    0.050   10.146    2.471     0.464    15.203  2802.386  1.110E+11  1.141E+11
   4    0.070   12.617    2.471     0.446    14.652  2369.933  8.755E+10  9.490E+10
   5    0.090   15.088    2.471     0.427    13.905  2080.490  6.734E+10  8.040E+10
   6    0.110   17.558    2.471     0.409    13.017  1870.078  5.149E+10  7.066E+10
   7    0.130   20.029    2.471     0.392    12.042  1540.115  4.020E+10  6.091E+10
   8    0.150   22.499    2.471     0.376    11.036  1263.977  3.343E+10  5.330E+10
   9    0.170   24.970    2.471     0.361    10.052  1037.237  2.974E+10  4.646E+10
  10    0.190   27.441    2.471     0.348     9.140   869.451  2.674E+10  4.090E+10
  11    0.210   29.911    2.471     0.337     8.343   756.064  2.368E+10  3.687E+10
  12    0.230   32.382    2.471     0.329     7.660   684.109  2.066E+10  3.396E+10
  13    0.250   34.853    2.471     0.323     7.031   637.746  1.810E+10  3.175E+10
  14    0.270   37.323    2.471     0.318     6.410   606.683  1.596E+10  2.994E+10
  15    0.290   39.794    2.471     0.314     5.811   589.828  1.464E+10  2.836E+10
  16    0.310   42.264    2.471     0.311     5.242   583.098  1.395E+10  2.689E+10
  17    0.330   44.735    2.471     0.308     4.711   577.442  1.319E+10  2.536E+10
  18    0.350   47.206    2.471     0.306     4.229   569.910  1.190E+10  2.385E+10
  19    0.370   49.676    2.471     0.304     3.795   559.998  1.043E+10  2.247E+10
  20    0.390   52.147    2.471     0.302     3.405   549.861  9.346E+09  2.129E+10
  21    0.410   54.617    2.471     0.299     3.046   540.073  8.626E+09  2.021E+10
  22    0.430   57.088    2.471     0.296     2.711   529.834  8.045E+09  1.919E+10
  23    0.450   59.559    2.471     0.294     2.397   518.484  7.386E+09  1.815E+10
  24    0.470   62.029    2.471     0.292     2.103   505.987  6.506E+09  1.714E+10
  25    0.490   64.500    2.471     0.290     1.826   493.384  5.628E+09  1.616E+10
  26    0.510   66.970    2.471     0.289     1.561   481.617  4.932E+09  1.523E+10
  27    0.530   69.441    2.471     0.288     1.310   470.788  4.418E+09  1.436E+10
  28    0.550   71.911    2.471     0.288     1.076   459.764  3.964E+09  1.349E+10
  29    0.570   74.382    2.471     0.288     0.859   435.317  3.462E+09  1.153E+10
  30    0.590   76.853    2.471     0.288     0.655   410.150  3.008E+09  9.644E+09
  31    0.610   79.323    2.471     0.289     0.459   383.765  2.639E+09  7.804E+09
  32    0.630   81.794    2.471     0.291     0.265   356.559  2.339E+09  6.039E+09
  33    0.650   84.264    2.471     0.293     0.070   330.312  2.067E+09  4.514E+09
  34    0.670   86.735    2.471     0.295    -0.137   310.764  1.797E+09  3.666E+09
  35    0.690   89.206    2.471     0.297    -0.363   291.114  1.532E+09  2.988E+09
  36    0.710   91.676    2.471     0.300    -0.623   270.928  1.279E+09  2.505E+09
  37    0.730   94.147    2.471     0.303    -0.926   248.091  1.045E+09  2.140E+09
  38    0.750   96.617    2.471     0.306    -1.240   223.141  8.453E+08  1.798E+09
  39    0.770   99.088    2.471     0.309    -1.542   196.611  6.808E+08  1.443E+09
  40    0.790  101.559    2.471     0.312    -1.809   170.299  5.411E+08  1.110E+09
  41    0.810  104.029    2.471     0.315    -2.024   143.204  4.203E+08  8.537E+08
  42    0.830  106.500    2.471     0.319    -2.138   120.192  3.224E+08  6.772E+08
  43    0.850  108.970    2.471     0.323    -2.172   100.449  2.475E+08  5.345E+08
  44    0.870  111.441    2.471     0.328    -2.163    83.269  1.870E+08  4.160E+08
  45    0.890  113.912    2.471     0.333    -2.123    69.226  1.365E+08  3.244E+08
  46    0.910  116.382    2.471     0.338    -2.053    57.802  9.503E+07  2.518E+08
  47    0.930  118.853    2.471     0.344    -1.949    48.065  6.210E+07  1.893E+08
  48    0.950  121.323    2.471     0.350    -1.802    37.553  3.724E+07  1.320E+08
  49    0.970  123.794    2.471     0.357    -1.610    28.877  1.977E+07  8.562E+07
  50    0.990  126.265    2.471     0.364    -1.373    16.215  6.449E+06  3.376E+07


Requested Outputs:


 Col   Parameter            Units               
 ---   ---------------      ---------------     
   0   Time                 (s)                 
   1   BldPitch1            (deg)               
   2   BldPitch2            (deg)               
   3   BldPitch3            (deg)               
   4   Azimuth              (deg)               
   5   RotSpeed             (rpm)               
   6   RotTorq              (kN-m)              
   7   RotPwr               (kW)                
   8   HSSBrTq              (kN-m)              
   9   Tip2Twr1             (m)                 
  10   Tip2Twr2             (m)                 
  11   Tip2Twr3             (m)                 
  12   RootFxb1             (kN)                
  13   RootFyb1             (kN)                
  14   RootFzb1             (kN)                
  15   RootMEdg1            (kN-m)              
  16   RootMFlp1            (kN-m)              
  17   RootMzb1             (kN-m)              
  18   RootFxc1             (kN)                
  19   RootFyc1             (kN)                
  20   RootMIP1             (kN-m)              
  21   RootMOoP1            (kN-m)              
  22   RotThrust            (kN)                
  23   LSShftFya            (kN)                
  24   LSShftFza            (kN)                
  25   LSShftMxa            (kN-m)              
  26   LSSTipMya            (kN-m)              
  27   LSSTipMza            (kN-m)              
  28   LSShftFys            (kN)                
  29   LSShftFzs            (kN)                
  30   LSSTipMys            (kN-m)              
  31   LSSTipMzs            (kN-m)              
  32   YawBrFxp             (kN)                
  33   YawBrFyp             (kN)                
  34   YawBrFzp             (kN)                
  35   YawBrMxp             (kN-m)              
  36   YawBrMyp             (kN-m)              
  37   YawBrMzp             (kN-m)              
  38   NcIMUTAxs            (m/s^2)             
  39   NcIMUTAys            (m/s^2)             
  40   NcIMUTAzs            (m/s^2)             
  41   TwrBsFxt             (kN)                
  42   TwrBsFyt             (kN)                
  43   TwrBsFzt             (kN)                
  44   TwrBsMxt             (kN-m)              
  45   TwrBsMyt             (kN-m)              
  46   TwrBsMzt             (kN-m)              
  47   PtfmSurge            (m)                 
  48   PtfmSway             (m)                 
  49   PtfmHeave            (m)                 
  50   PtfmRoll             (deg)               
  51   PtfmPitch            (deg)               
  52   PtfmYaw              (deg)               


  Requested Output Channels at each blade station:
 Col   Parameter            Units               
 ---   ---------------      ---------------     
